
**** 05/18/25 15:14:57 **** PSpice 24.1.0 (23 January 2025) *** ID# 0 ********

 ** Profile: "SCHEMATIC1-monte_carlo"  [ C:\Users\peleg\Desktop\Proiect Cad Final\proiectcad2\proiectcad2-pspicefiles\schematic1\mont


 ****     CIRCUIT DESCRIPTION


******************************************************************************




** Creating circuit file "monte_carlo.cir" 
** WARNING: THIS AUTOMATICALLY GENERATED FILE MAY BE OVERWRITTEN BY SUBSEQUENT SIMULATIONS

*Libraries: 
* Profile Libraries :
* Local Libraries :
* From [PSPICE NETLIST] section of E:\orcadx\cdssetup\OrCAD_PSpice\24.1.0\PSpice.ini file:
.lib "nom.lib" 

*Analysis directives: 
.TRAN  0 600u 0 0.6u 
.MC 50 TRAN V([PWM]) YMAX OUTPUT ALL SEED=200 
.OPTIONS ADVCONV
.PROBE64 V(alias(*)) I(alias(*)) W(alias(*)) D(alias(*)) NOISE(alias(*)) 
.INC "..\SCHEMATIC1.net" 



**** INCLUDING SCHEMATIC1.net ****
* source PROIECTCAD2
R_R1         N00472 N00142 R_R1 10k TC=0,0 
.model        R_R1 RES R=1 DEV=5% TC1=0 TC2=0
R_R2         N00142 N00159 R_R2 22k TC=0,0 
.model        R_R2 RES R=1 DEV=5% TC1=0 TC2=0
D_D1         N00323 N00159 D1N4148 
D_D2         N00159 N00319 D1N4148 
R_R3         N00323 N00327 R_R3 10k TC=0,0 
.model        R_R3 RES R=1 DEV=5% TC1=0 TC2=0
R_R4         N00319 N00327 R_R4 43.2k TC=0,0 
.model        R_R4 RES R=1 DEV=5% TC1=0 TC2=0
C_C1         N00327 N00472  1n  TC=0,0 
X_R5         N09198 N00645 N09194 POT PARAMS: SET={fumax} VALUE=10k
R_R9         10 N09194 R_R9 4.99k TC=0,0 
.model        R_R9 RES R=1 DEV=2% TC1=0 TC2=0
R_R10         N09198 -10 R_R10 10k TC=0,0 
.model        R_R10 RES R=1 DEV=5% TC1=0 TC2=0
V_V4         -10 0 -10V
V_V3         10 0 10V
X_U4A         0 N11257 10 -10 PWM TL082
R_R11         N06722 N11257 R_R11 10k TC=0,0 
.model        R_R11 RES R=1 DEV=5% TC1=0 TC2=0
X_R12         0 N11257 PWM POT PARAMS: SET={Amax} VALUE=10K
X_U4B         N00142 0 10 -10 N00159 TL082
X_U5A         0 N00327 10 -10 N00472 TL082
X_U5B         N00472 N00645 10 -10 N06722 TL082
.PARAM  fumin=0.35 amax=0.45 amin=0.1 fumax=0.75

**** RESUMING monte_carlo.cir ****
.END

**** 05/18/25 15:14:57 **** PSpice 24.1.0 (23 January 2025) *** ID# 0 ********

 ** Profile: "SCHEMATIC1-monte_carlo"  [ C:\Users\peleg\Desktop\Proiect Cad Final\proiectcad2\proiectcad2-pspicefiles\schematic1\mont


 ****     Diode MODEL PARAMETERS


******************************************************************************




               D1N4148         X_U4A.dx        X_U4A.dy        X_U4B.dx        
          IS    2.682000E-09  800.000000E-18  800.000000E-18  800.000000E-18 
           N    1.836                                                        
         ISR    1.565000E-09                                                 
         IKF     .04417                                                      
          BV  100                                                            
         IBV  100.000000E-06                                                 
          RS     .5664                          1.000000E-03                 
          TT   11.540000E-09                                                 
         CJO    4.000000E-12                   10.000000E-12                 
          VJ     .5                                                          
           M     .3333                                                       


               X_U4B.dy        X_U5A.dx        X_U5A.dy        X_U5B.dx        
          IS  800.000000E-18  800.000000E-18  800.000000E-18  800.000000E-18 
          RS    1.000000E-03                    1.000000E-03                 
         CJO   10.000000E-12                   10.000000E-12                 


               X_U5B.dy        
          IS  800.000000E-18 
          RS    1.000000E-03 
         CJO   10.000000E-12 


**** 05/18/25 15:14:57 **** PSpice 24.1.0 (23 January 2025) *** ID# 0 ********

 ** Profile: "SCHEMATIC1-monte_carlo"  [ C:\Users\peleg\Desktop\Proiect Cad Final\proiectcad2\proiectcad2-pspicefiles\schematic1\mont


 ****     Junction FET MODEL PARAMETERS


******************************************************************************




               X_U4A.jx1       X_U4A.jx2       X_U4B.jx1       X_U4B.jx2       
               NJF             NJF             NJF             NJF             
         VTO   -1              -1              -1              -1            
        BETA  222.070000E-06  222.070000E-06  222.070000E-06  222.070000E-06 
          IS  100.000000E-12  100.000000E-12  100.000000E-12  100.000000E-12 


               X_U5A.jx1       X_U5A.jx2       X_U5B.jx1       X_U5B.jx2       
               NJF             NJF             NJF             NJF             
         VTO   -1              -1              -1              -1            
        BETA  222.070000E-06  222.070000E-06  222.070000E-06  222.070000E-06 
          IS  100.000000E-12  100.000000E-12  100.000000E-12  100.000000E-12 


**** 05/18/25 15:14:57 **** PSpice 24.1.0 (23 January 2025) *** ID# 0 ********

 ** Profile: "SCHEMATIC1-monte_carlo"  [ C:\Users\peleg\Desktop\Proiect Cad Final\proiectcad2\proiectcad2-pspicefiles\schematic1\mont


 ****     Resistor MODEL PARAMETERS


******************************************************************************




               R_R1            R_R2            R_R3            R_R4            
           R    1               1               1               1            


               R_R9            R_R10           R_R11           
           R    1               1               1            


**** 05/18/25 15:14:57 **** PSpice 24.1.0 (23 January 2025) *** ID# 0 ********

 ** Profile: "SCHEMATIC1-monte_carlo"  [ C:\Users\peleg\Desktop\Proiect Cad Final\proiectcad2\proiectcad2-pspicefiles\schematic1\mont


 ****     INITIAL TRANSIENT SOLUTION       TEMPERATURE =   27.000 DEG C

                      MONTE CARLO NOMINAL

******************************************************************************



 NODE   VOLTAGE     NODE   VOLTAGE     NODE   VOLTAGE     NODE   VOLTAGE


(   10)   10.0000  (  -10)  -10.0000  (  PWM)    3.8245  (N00142) 14.13E-06     

(N00159)    -.0012 (N00319)-18.61E-06 (N00323)-15.20E-06 (N00327)-14.13E-06     

(N00472) 576.1E-06 (N00645)     .0040 (N06722)   -8.4991 (N09194)    6.0064     

(N09198)   -1.9968 (N11257)-27.87E-06 (X_U4A.6)-366.6E-06                       

(X_U4A.7)    3.8670                   (X_U4A.8)    3.8670                       

(X_U4A.9)    0.0000                   (X_U4B.6) 116.0E-09                       

(X_U4B.7)    -.0012                   (X_U4B.8)    -.0012                       

(X_U4B.9)    0.0000                   (X_U5A.6)-54.71E-09                       

(X_U5A.7) 578.9E-06                   (X_U5A.8) 578.9E-06                       

(X_U5A.9)    0.0000                   (X_U5B.6)     .0918                       

(X_U5B.7)  -10.4670                   (X_U5B.8)  -10.4670                       

(X_U5B.9)    0.0000                   (X_U4A.10)     .3992                      

(X_U4A.11)    9.5748                  (X_U4A.12)    9.5747                      

(X_U4A.53)    7.6842                  (X_U4A.54)   -7.6842                      

(X_U4A.90)     .8499                  (X_U4A.91)   40.0000                      

(X_U4A.92)  -40.0000                  (X_U4A.99)    0.0000                      

(X_U4B.10)     .3992                  (X_U4B.11)    9.5747                      

(X_U4B.12)    9.5747                  (X_U4B.53)    7.6842                      

(X_U4B.54)   -7.6842                  (X_U4B.90)-56.62E-06                      

(X_U4B.91)   40.0000                  (X_U4B.92)  -40.0000                      

(X_U4B.99)    0.0000                  (X_U5A.10)     .3992                      

(X_U5A.11)    9.5747                  (X_U5A.12)    9.5747                      

(X_U5A.53)    7.6842                  (X_U5A.54)   -7.6842                      

(X_U5A.90) 55.99E-06                  (X_U5A.91)   40.0000                      

(X_U5A.92)  -40.0000                  (X_U5A.99)    0.0000                      

(X_U5B.10)     .4015                  (X_U5B.11)    9.5723                      

(X_U5B.12)    9.5772                  (X_U5B.53)    7.6842                      

(X_U5B.54)   -7.6842                  (X_U5B.90)  -39.3590                      

(X_U5B.91)   40.0000                  (X_U5B.92)  -40.0000                      

(X_U5B.99)    0.0000                  




    VOLTAGE SOURCE CURRENTS
    NAME         CURRENT

    V_V4         2.338E-02
    V_V3        -6.189E-02
    X_U4A.vb    -3.666E-09
    X_U4A.vc     3.860E-12
    X_U4A.ve     1.256E-11
    X_U4A.vlim   8.499E-04
    X_U4A.vlp   -3.915E-11
    X_U4A.vln   -4.085E-11
    X_U4B.vb     1.160E-12
    X_U4B.vc     7.686E-12
    X_U4B.ve     8.736E-12
    X_U4B.vlim  -5.662E-08
    X_U4B.vlp   -4.000E-11
    X_U4B.vln   -4.000E-11
    X_U5A.vb    -5.471E-13
    X_U5A.vc     7.684E-12
    X_U5A.ve     8.737E-12
    X_U5A.vlim   5.599E-08
    X_U5A.vlp   -4.000E-11
    X_U5A.vln   -4.000E-11
    X_U5B.vb     9.182E-07
    X_U5B.vc     1.618E-11
    X_U5B.ve    -3.851E-02
    X_U5B.vlim  -3.936E-02
    X_U5B.vlp   -7.936E-11
    X_U5B.vln   -6.415E-13

    TOTAL POWER DISSIPATION   9.42E-01  WATTS


**** 05/18/25 15:14:57 **** PSpice 24.1.0 (23 January 2025) *** ID# 0 ********

 ** Profile: "SCHEMATIC1-monte_carlo"  [ C:\Users\peleg\Desktop\Proiect Cad Final\proiectcad2\proiectcad2-pspicefiles\schematic1\mont


 ****     INITIAL TRANSIENT SOLUTION       TEMPERATURE =   27.000 DEG C

                      MONTE CARLO PASS 2

******************************************************************************



 NODE   VOLTAGE     NODE   VOLTAGE     NODE   VOLTAGE     NODE   VOLTAGE


(   10)   10.0000  (  -10)  -10.0000  (  PWM)   -3.6692  (N00142) 14.13E-06     

(N00159)    -.0012 (N00319)-18.81E-06 (N00323)-15.21E-06 (N00327)-14.13E-06     

(N00472) 591.6E-06 (N00645)    -.0238 (N06722)    8.4999 (N09194)    6.0350     

(N09198)   -2.0434 (N11257)-951.1E-09 (X_U4A.6) 351.7E-06                       

(X_U4A.7)   -3.7099                   (X_U4A.8)   -3.7099                       

(X_U4A.9)    0.0000                   (X_U4B.6) 116.0E-09                       

(X_U4B.7)    -.0012                   (X_U4B.8)    -.0012                       

(X_U4B.9)    0.0000                   (X_U5A.6)-56.16E-09                       

(X_U5A.7) 594.4E-06                   (X_U5A.8) 594.4E-06                       

(X_U5A.9)    0.0000                   (X_U5B.6)    -.6506                       

(X_U5B.7)   10.5290                   (X_U5B.8)   10.5290                       

(X_U5B.9)    0.0000                   (X_U4A.10)     .3992                      

(X_U4A.11)    9.5747                  (X_U4A.12)    9.5747                      

(X_U4A.53)    7.6842                  (X_U4A.54)   -7.6842                      

(X_U4A.90)    -.8154                  (X_U4A.91)   40.0000                      

(X_U4A.92)  -40.0000                  (X_U4A.99)    0.0000                      

(X_U4B.10)     .3992                  (X_U4B.11)    9.5747                      

(X_U4B.12)    9.5747                  (X_U4B.53)    7.6842                      

(X_U4B.54)   -7.6842                  (X_U4B.90)-56.21E-06                      

(X_U4B.91)   40.0000                  (X_U4B.92)  -40.0000                      

(X_U4B.99)    0.0000                  (X_U5A.10)     .3992                      

(X_U5A.11)    9.5747                  (X_U5A.12)    9.5747                      

(X_U5A.53)    7.6842                  (X_U5A.54)   -7.6842                      

(X_U5A.90) 55.58E-06                  (X_U5A.91)   40.0000                      

(X_U5A.92)  -40.0000                  (X_U5A.99)    0.0000                      

(X_U5B.10)     .3877                  (X_U5B.11)    9.5920                      

(X_U5B.12)    9.5575                  (X_U5B.53)    7.6842                      

(X_U5B.54)   -7.6842                  (X_U5B.90)   40.5860                      

(X_U5B.91)   40.0000                  (X_U5B.92)  -40.0000                      

(X_U5B.99)    0.0000                  




    VOLTAGE SOURCE CURRENTS
    NAME         CURRENT

    V_V4         6.189E-02
    V_V3        -2.212E-02
    X_U4A.vb     3.517E-09
    X_U4A.vc     1.135E-11
    X_U4A.ve     5.068E-12
    X_U4A.vlim  -8.154E-04
    X_U4A.vlp   -4.082E-11
    X_U4A.vln   -3.919E-11
    X_U4B.vb     1.160E-12
    X_U4B.vc     7.686E-12
    X_U4B.ve     8.736E-12
    X_U4B.vlim  -5.621E-08
    X_U4B.vlp   -4.000E-11
    X_U4B.vln   -4.000E-11
    X_U5A.vb    -5.616E-13
    X_U5A.vc     7.684E-12
    X_U5A.ve     8.737E-12
    X_U5A.vlim   5.558E-08
    X_U5A.vlp   -4.000E-11
    X_U5A.vln   -4.000E-11
    X_U5B.vb    -6.506E-06
    X_U5B.vc    -3.977E-02
    X_U5B.ve     1.724E-11
    X_U5B.vlim   4.059E-02
    X_U5B.vlp    5.617E-06
    X_U5B.vln   -8.059E-11

    TOTAL POWER DISSIPATION   9.32E-01  WATTS


**** 05/18/25 15:14:57 **** PSpice 24.1.0 (23 January 2025) *** ID# 0 ********

 ** Profile: "SCHEMATIC1-monte_carlo"  [ C:\Users\peleg\Desktop\Proiect Cad Final\proiectcad2\proiectcad2-pspicefiles\schematic1\mont


 ****     INITIAL TRANSIENT SOLUTION       TEMPERATURE =   27.000 DEG C

                      MONTE CARLO PASS 3

******************************************************************************



 NODE   VOLTAGE     NODE   VOLTAGE     NODE   VOLTAGE     NODE   VOLTAGE


(   10)   10.0000  (  -10)  -10.0000  (  PWM)    3.8647  (N00142) 14.13E-06     

(N00159)    -.0012 (N00319)-18.59E-06 (N00323)-15.16E-06 (N00327)-14.13E-06     

(N00472) 573.9E-06 (N00645)     .0647 (N06722)   -8.4999 (N09194)    6.0436     

(N09198)   -1.9283 (N11257)-27.96E-06 (X_U4A.6)-370.5E-06                       

(X_U4A.7)    3.9077                   (X_U4A.8)    3.9077                       

(X_U4A.9)    0.0000                   (X_U4B.6) 116.0E-09                       

(X_U4B.7)    -.0012                   (X_U4B.8)    -.0012                       

(X_U4B.9)    0.0000                   (X_U5A.6)-54.51E-09                       

(X_U5A.7) 576.8E-06                   (X_U5A.8) 576.8E-06                       

(X_U5A.9)    0.0000                   (X_U5B.6)    1.7086                       

(X_U5B.7)  -10.5310                   (X_U5B.8)  -10.5310                       

(X_U5B.9)    0.0000                   (X_U4A.10)     .3992                      

(X_U4A.11)    9.5748                  (X_U4A.12)    9.5747                      

(X_U4A.53)    7.6842                  (X_U4A.54)   -7.6842                      

(X_U4A.90)     .8588                  (X_U4A.91)   40.0000                      

(X_U4A.92)  -40.0000                  (X_U4A.99)    0.0000                      

(X_U4B.10)     .3992                  (X_U4B.11)    9.5747                      

(X_U4B.12)    9.5747                  (X_U4B.53)    7.6842                      

(X_U4B.54)   -7.6842                  (X_U4B.90)-57.74E-06                      

(X_U4B.91)   40.0000                  (X_U4B.92)  -40.0000                      

(X_U4B.99)    0.0000                  (X_U5A.10)     .3992                      

(X_U5A.11)    9.5747                  (X_U5A.12)    9.5747                      

(X_U5A.53)    7.6842                  (X_U5A.54)   -7.6842                      

(X_U5A.90) 57.11E-06                  (X_U5A.91)   40.0000                      

(X_U5A.92)  -40.0000                  (X_U5A.99)    0.0000                      

(X_U5B.10)     .4326                  (X_U5B.11)    9.5294                      

(X_U5B.12)    9.6200                  (X_U5B.53)    7.6842                      

(X_U5B.54)   -7.6842                  (X_U5B.90)  -40.6140                      

(X_U5B.91)   40.0000                  (X_U5B.92)  -40.0000                      

(X_U5B.99)    0.0000                  




    VOLTAGE SOURCE CURRENTS
    NAME         CURRENT

    V_V4         2.213E-02
    V_V3        -6.188E-02
    X_U4A.vb    -3.705E-09
    X_U4A.vc     3.820E-12
    X_U4A.ve     1.260E-11
    X_U4A.vlim   8.588E-04
    X_U4A.vlp   -3.914E-11
    X_U4A.vln   -4.086E-11
    X_U4B.vb     1.160E-12
    X_U4B.vc     7.686E-12
    X_U4B.ve     8.736E-12
    X_U4B.vlim  -5.774E-08
    X_U4B.vlp   -4.000E-11
    X_U4B.vln   -4.000E-11
    X_U5A.vb    -5.451E-13
    X_U5A.vc     7.684E-12
    X_U5A.ve     8.737E-12
    X_U5A.vlim   5.711E-08
    X_U5A.vlp   -4.000E-11
    X_U5A.vln   -4.000E-11
    X_U5B.vb     1.709E-05
    X_U5B.vc     1.618E-11
    X_U5B.ve    -3.976E-02
    X_U5B.vlim  -4.061E-02
    X_U5B.vlp   -8.061E-11
    X_U5B.vln    1.631E-05

    TOTAL POWER DISSIPATION   9.32E-01  WATTS


**** 05/18/25 15:14:57 **** PSpice 24.1.0 (23 January 2025) *** ID# 0 ********

 ** Profile: "SCHEMATIC1-monte_carlo"  [ C:\Users\peleg\Desktop\Proiect Cad Final\proiectcad2\proiectcad2-pspicefiles\schematic1\mont


 ****     INITIAL TRANSIENT SOLUTION       TEMPERATURE =   27.000 DEG C

                      MONTE CARLO PASS 4

******************************************************************************



 NODE   VOLTAGE     NODE   VOLTAGE     NODE   VOLTAGE     NODE   VOLTAGE


(   10)   10.0000  (  -10)  -10.0000  (  PWM)    3.7743  (N00142) 14.13E-06     

(N00159)    -.0012 (N00319)-18.82E-06 (N00323)-15.22E-06 (N00327)-14.13E-06     

(N00472) 597.3E-06 (N00645)     .0187 (N06722)   -8.4999 (N09194)    5.9672     

(N09198)   -1.9642 (N11257)-27.69E-06 (X_U4A.6)-361.8E-06                       

(X_U4A.7)    3.8163                   (X_U4A.8)    3.8163                       

(X_U4A.9)    0.0000                   (X_U4B.6) 116.1E-09                       

(X_U4B.7)    -.0012                   (X_U4B.8)    -.0012                       

(X_U4B.9)    0.0000                   (X_U5A.6)-56.72E-09                       

(X_U5A.7) 600.2E-06                   (X_U5A.8) 600.2E-06                       

(X_U5A.9)    0.0000                   (X_U5B.6)     .4832                       

(X_U5B.7)  -10.5290                   (X_U5B.8)  -10.5290                       

(X_U5B.9)    0.0000                   (X_U4A.10)     .3992                      

(X_U4A.11)    9.5748                  (X_U4A.12)    9.5747                      

(X_U4A.53)    7.6842                  (X_U4A.54)   -7.6842                      

(X_U4A.90)     .8387                  (X_U4A.91)   40.0000                      

(X_U4A.92)  -40.0000                  (X_U4A.99)    0.0000                      

(X_U4B.10)     .3992                  (X_U4B.11)    9.5747                      

(X_U4B.12)    9.5747                  (X_U4B.53)    7.6842                      

(X_U4B.54)   -7.6842                  (X_U4B.90)-58.40E-06                      

(X_U4B.91)   40.0000                  (X_U4B.92)  -40.0000                      

(X_U4B.99)    0.0000                  (X_U5A.10)     .3992                      

(X_U5A.11)    9.5747                  (X_U5A.12)    9.5747                      

(X_U5A.53)    7.6842                  (X_U5A.54)   -7.6842                      

(X_U5A.90) 57.77E-06                  (X_U5A.91)   40.0000                      

(X_U5A.92)  -40.0000                  (X_U5A.99)    0.0000                      

(X_U5B.10)     .4089                  (X_U5B.11)    9.5619                      

(X_U5B.12)    9.5875                  (X_U5B.53)    7.6842                      

(X_U5B.54)   -7.6842                  (X_U5B.90)  -40.5770                      

(X_U5B.91)   40.0000                  (X_U5B.92)  -40.0000                      

(X_U5B.99)    0.0000                  




    VOLTAGE SOURCE CURRENTS
    NAME         CURRENT

    V_V4         2.214E-02
    V_V3        -6.188E-02
    X_U4A.vb    -3.618E-09
    X_U4A.vc     3.911E-12
    X_U4A.ve     1.251E-11
    X_U4A.vlim   8.387E-04
    X_U4A.vlp   -3.916E-11
    X_U4A.vln   -4.084E-11
    X_U4B.vb     1.161E-12
    X_U4B.vc     7.686E-12
    X_U4B.ve     8.736E-12
    X_U4B.vlim  -5.840E-08
    X_U4B.vlp   -4.000E-11
    X_U4B.vln   -4.000E-11
    X_U5A.vb    -5.672E-13
    X_U5A.vc     7.684E-12
    X_U5A.ve     8.737E-12
    X_U5A.vlim   5.777E-08
    X_U5A.vlp   -4.000E-11
    X_U5A.vln   -4.000E-11
    X_U5B.vb     4.832E-06
    X_U5B.vc     1.618E-11
    X_U5B.ve    -3.974E-02
    X_U5B.vlim  -4.058E-02
    X_U5B.vlp   -8.058E-11
    X_U5B.vln    3.925E-06

    TOTAL POWER DISSIPATION   9.32E-01  WATTS


**** 05/18/25 15:14:57 **** PSpice 24.1.0 (23 January 2025) *** ID# 0 ********

 ** Profile: "SCHEMATIC1-monte_carlo"  [ C:\Users\peleg\Desktop\Proiect Cad Final\proiectcad2\proiectcad2-pspicefiles\schematic1\mont


 ****     INITIAL TRANSIENT SOLUTION       TEMPERATURE =   27.000 DEG C

                      MONTE CARLO PASS 5

******************************************************************************



 NODE   VOLTAGE     NODE   VOLTAGE     NODE   VOLTAGE     NODE   VOLTAGE


(   10)   10.0000  (  -10)  -10.0000  (  PWM)    3.9135  (N00142) 14.13E-06     

(N00159)    -.0012 (N00319)-18.49E-06 (N00323)-15.22E-06 (N00327)-14.13E-06     

(N00472) 615.0E-06 (N00645)     .0228 (N06722)   -8.4999 (N09194)    5.9697     

(N09198)   -1.9594 (N11257)-28.19E-06 (X_U4A.6)-375.2E-06                       

(X_U4A.7)    3.9570                   (X_U4A.8)    3.9570                       

(X_U4A.9)    0.0000                   (X_U4B.6) 116.0E-09                       

(X_U4B.7)    -.0012                   (X_U4B.8)    -.0012                       

(X_U4B.9)    0.0000                   (X_U5A.6)-58.38E-09                       

(X_U5A.7) 617.8E-06                   (X_U5A.8) 617.8E-06                       

(X_U5A.9)    0.0000                   (X_U5B.6)     .5934                       

(X_U5B.7)  -10.5290                   (X_U5B.8)  -10.5290                       

(X_U5B.9)    0.0000                   (X_U4A.10)     .3992                      

(X_U4A.11)    9.5748                  (X_U4A.12)    9.5747                      

(X_U4A.53)    7.6842                  (X_U4A.54)   -7.6842                      

(X_U4A.90)     .8697                  (X_U4A.91)   40.0000                      

(X_U4A.92)  -40.0000                  (X_U4A.99)    0.0000                      

(X_U4B.10)     .3992                  (X_U4B.11)    9.5747                      

(X_U4B.12)    9.5747                  (X_U4B.53)    7.6842                      

(X_U4B.54)   -7.6842                  (X_U4B.90)-58.43E-06                      

(X_U4B.91)   40.0000                  (X_U4B.92)  -40.0000                      

(X_U4B.99)    0.0000                  (X_U5A.10)     .3992                      

(X_U5A.11)    9.5747                  (X_U5A.12)    9.5747                      

(X_U5A.53)    7.6842                  (X_U5A.54)   -7.6842                      

(X_U5A.90) 57.80E-06                  (X_U5A.91)   40.0000                      

(X_U5A.92)  -40.0000                  (X_U5A.99)    0.0000                      

(X_U5B.10)     .4110                  (X_U5B.11)    9.5590                      

(X_U5B.12)    9.5904                  (X_U5B.53)    7.6842                      

(X_U5B.54)   -7.6842                  (X_U5B.90)  -40.5840                      

(X_U5B.91)   40.0000                  (X_U5B.92)  -40.0000                      

(X_U5B.99)    0.0000                  




    VOLTAGE SOURCE CURRENTS
    NAME         CURRENT

    V_V4         2.216E-02
    V_V3        -6.188E-02
    X_U4A.vb    -3.752E-09
    X_U4A.vc     3.771E-12
    X_U4A.ve     1.265E-11
    X_U4A.vlim   8.697E-04
    X_U4A.vlp   -3.913E-11
    X_U4A.vln   -4.087E-11
    X_U4B.vb     1.160E-12
    X_U4B.vc     7.686E-12
    X_U4B.ve     8.736E-12
    X_U4B.vlim  -5.843E-08
    X_U4B.vlp   -4.000E-11
    X_U4B.vln   -4.000E-11
    X_U5A.vb    -5.838E-13
    X_U5A.vc     7.684E-12
    X_U5A.ve     8.737E-12
    X_U5A.vlim   5.780E-08
    X_U5A.vlp   -4.000E-11
    X_U5A.vln   -4.000E-11
    X_U5B.vb     5.934E-06
    X_U5B.vc     1.618E-11
    X_U5B.ve    -3.971E-02
    X_U5B.vlim  -4.058E-02
    X_U5B.vlp   -8.058E-11
    X_U5B.vln    5.040E-06

    TOTAL POWER DISSIPATION   9.32E-01  WATTS


**** 05/18/25 15:14:57 **** PSpice 24.1.0 (23 January 2025) *** ID# 0 ********

 ** Profile: "SCHEMATIC1-monte_carlo"  [ C:\Users\peleg\Desktop\Proiect Cad Final\proiectcad2\proiectcad2-pspicefiles\schematic1\mont


 ****     INITIAL TRANSIENT SOLUTION       TEMPERATURE =   27.000 DEG C

                      MONTE CARLO PASS 6

******************************************************************************



 NODE   VOLTAGE     NODE   VOLTAGE     NODE   VOLTAGE     NODE   VOLTAGE


(   10)   10.0000  (  -10)  -10.0000  (  PWM)    3.6686  (N00142) 14.13E-06     

(N00159)    -.0012 (N00319)-18.62E-06 (N00323)-15.21E-06 (N00327)-14.13E-06     

(N00472) 573.1E-06 (N00645)     .1750 (N06722)   -8.5000 (N09194)    6.0973     

(N09198)   -1.7991 (N11257)-27.31E-06 (X_U4A.6)-351.7E-06                       

(X_U4A.7)    3.7094                   (X_U4A.8)    3.7094                       

(X_U4A.9)    0.0000                   (X_U4B.6) 116.0E-09                       

(X_U4B.7)    -.0012                   (X_U4B.8)    -.0012                       

(X_U4B.9)    0.0000                   (X_U5A.6)-54.43E-09                       

(X_U5A.7) 576.0E-06                   (X_U5A.8) 576.0E-06                       

(X_U5A.9)    0.0000                   (X_U5B.6)    4.6064                       

(X_U5B.7)  -10.5320                   (X_U5B.8)  -10.5320                       

(X_U5B.9)    0.0000                   (X_U4A.10)     .3992                      

(X_U4A.11)    9.5748                  (X_U4A.12)    9.5747                      

(X_U4A.53)    7.6842                  (X_U4A.54)   -7.6842                      

(X_U4A.90)     .8153                  (X_U4A.91)   40.0000                      

(X_U4A.92)  -40.0000                  (X_U4A.99)    0.0000                      

(X_U4B.10)     .3992                  (X_U4B.11)    9.5747                      

(X_U4B.12)    9.5747                  (X_U4B.53)    7.6842                      

(X_U4B.54)   -7.6842                  (X_U4B.90)-57.86E-06                      

(X_U4B.91)   40.0000                  (X_U4B.92)  -40.0000                      

(X_U4B.99)    0.0000                  (X_U5A.10)     .3992                      

(X_U5A.11)    9.5747                  (X_U5A.12)    9.5747                      

(X_U5A.53)    7.6842                  (X_U5A.54)   -7.6842                      

(X_U5A.90) 57.23E-06                  (X_U5A.91)   40.0000                      

(X_U5A.92)  -40.0000                  (X_U5A.99)    0.0000                      

(X_U5B.10)     .4932                  (X_U5B.11)    9.4524                      

(X_U5B.12)    9.6967                  (X_U5B.53)    7.6842                      

(X_U5B.54)   -7.6842                  (X_U5B.90)  -40.6410                      

(X_U5B.91)   40.0000                  (X_U5B.92)  -40.0000                      

(X_U5B.99)    0.0000                  




    VOLTAGE SOURCE CURRENTS
    NAME         CURRENT

    V_V4         2.205E-02
    V_V3        -6.188E-02
    X_U4A.vb    -3.517E-09
    X_U4A.vc     4.016E-12
    X_U4A.ve     1.241E-11
    X_U4A.vlim   8.153E-04
    X_U4A.vlp   -3.919E-11
    X_U4A.vln   -4.082E-11
    X_U4B.vb     1.160E-12
    X_U4B.vc     7.686E-12
    X_U4B.ve     8.736E-12
    X_U4B.vlim  -5.786E-08
    X_U4B.vlp   -4.000E-11
    X_U4B.vln   -4.000E-11
    X_U5A.vb    -5.443E-13
    X_U5A.vc     7.684E-12
    X_U5A.ve     8.737E-12
    X_U5A.vlim   5.723E-08
    X_U5A.vlp   -4.000E-11
    X_U5A.vln   -4.000E-11
    X_U5B.vb     4.606E-05
    X_U5B.vc     1.619E-11
    X_U5B.ve    -3.983E-02
    X_U5B.vlim  -4.064E-02
    X_U5B.vlp   -8.064E-11
    X_U5B.vln    4.559E-05

    TOTAL POWER DISSIPATION   9.30E-01  WATTS


**** 05/18/25 15:14:57 **** PSpice 24.1.0 (23 January 2025) *** ID# 0 ********

 ** Profile: "SCHEMATIC1-monte_carlo"  [ C:\Users\peleg\Desktop\Proiect Cad Final\proiectcad2\proiectcad2-pspicefiles\schematic1\mont


 ****     INITIAL TRANSIENT SOLUTION       TEMPERATURE =   27.000 DEG C

                      MONTE CARLO PASS 7

******************************************************************************



 NODE   VOLTAGE     NODE   VOLTAGE     NODE   VOLTAGE     NODE   VOLTAGE


(   10)   10.0000  (  -10)  -10.0000  (  PWM)    3.9222  (N00142) 14.13E-06     

(N00159)    -.0012 (N00319)-18.40E-06 (N00323)-15.20E-06 (N00327)-14.13E-06     

(N00472) 603.8E-06 (N00645)     .1246 (N06722)   -8.4999 (N09194)    6.0396     

(N09198)   -1.8471 (N11257)-28.22E-06 (X_U4A.6)-376.0E-06                       

(X_U4A.7)    3.9658                   (X_U4A.8)    3.9658                       

(X_U4A.9)    0.0000                   (X_U4B.6) 116.0E-09                       

(X_U4B.7)    -.0012                   (X_U4B.8)    -.0012                       

(X_U4B.9)    0.0000                   (X_U5A.6)-57.33E-09                       

(X_U5A.7) 606.7E-06                   (X_U5A.8) 606.7E-06                       

(X_U5A.9)    0.0000                   (X_U5B.6)    3.2921                       

(X_U5B.7)  -10.5320                   (X_U5B.8)  -10.5320                       

(X_U5B.9)    0.0000                   (X_U4A.10)     .3992                      

(X_U4A.11)    9.5748                  (X_U4A.12)    9.5747                      

(X_U4A.53)    7.6842                  (X_U4A.54)   -7.6842                      

(X_U4A.90)     .8716                  (X_U4A.91)   40.0000                      

(X_U4A.92)  -40.0000                  (X_U4A.99)    0.0000                      

(X_U4B.10)     .3992                  (X_U4B.11)    9.5747                      

(X_U4B.12)    9.5747                  (X_U4B.53)    7.6842                      

(X_U4B.54)   -7.6842                  (X_U4B.90)-57.79E-06                      

(X_U4B.91)   40.0000                  (X_U4B.92)  -40.0000                      

(X_U4B.99)    0.0000                  (X_U5A.10)     .3992                      

(X_U5A.11)    9.5747                  (X_U5A.12)    9.5747                      

(X_U5A.53)    7.6842                  (X_U5A.54)   -7.6842                      

(X_U5A.90) 57.16E-06                  (X_U5A.91)   40.0000                      

(X_U5A.92)  -40.0000                  (X_U5A.99)    0.0000                      

(X_U5B.10)     .4649                  (X_U5B.11)    9.4873                      

(X_U5B.12)    9.6619                  (X_U5B.53)    7.6842                      

(X_U5B.54)   -7.6842                  (X_U5B.90)  -40.6320                      

(X_U5B.91)   40.0000                  (X_U5B.92)  -40.0000                      

(X_U5B.99)    0.0000                  




    VOLTAGE SOURCE CURRENTS
    NAME         CURRENT

    V_V4         2.211E-02
    V_V3        -6.188E-02
    X_U4A.vb    -3.760E-09
    X_U4A.vc     3.763E-12
    X_U4A.ve     1.266E-11
    X_U4A.vlim   8.716E-04
    X_U4A.vlp   -3.913E-11
    X_U4A.vln   -4.087E-11
    X_U4B.vb     1.160E-12
    X_U4B.vc     7.686E-12
    X_U4B.ve     8.736E-12
    X_U4B.vlim  -5.779E-08
    X_U4B.vlp   -4.000E-11
    X_U4B.vln   -4.000E-11
    X_U5A.vb    -5.733E-13
    X_U5A.vc     7.684E-12
    X_U5A.ve     8.737E-12
    X_U5A.vlim   5.716E-08
    X_U5A.vlp   -4.000E-11
    X_U5A.vln   -4.000E-11
    X_U5B.vb     3.292E-05
    X_U5B.vc     1.618E-11
    X_U5B.ve    -3.976E-02
    X_U5B.vlim  -4.063E-02
    X_U5B.vlp   -8.063E-11
    X_U5B.vln    3.231E-05

    TOTAL POWER DISSIPATION   9.31E-01  WATTS


**** 05/18/25 15:14:57 **** PSpice 24.1.0 (23 January 2025) *** ID# 0 ********

 ** Profile: "SCHEMATIC1-monte_carlo"  [ C:\Users\peleg\Desktop\Proiect Cad Final\proiectcad2\proiectcad2-pspicefiles\schematic1\mont


 ****     INITIAL TRANSIENT SOLUTION       TEMPERATURE =   27.000 DEG C

                      MONTE CARLO PASS 8

******************************************************************************



 NODE   VOLTAGE     NODE   VOLTAGE     NODE   VOLTAGE     NODE   VOLTAGE


(   10)   10.0000  (  -10)  -10.0000  (  PWM)    3.6807  (N00142) 14.13E-06     

(N00159)    -.0012 (N00319)-18.68E-06 (N00323)-15.20E-06 (N00327)-14.13E-06     

(N00472) 594.6E-06 (N00645)     .0620 (N06722)   -8.4999 (N09194)    5.9901     

(N09198)   -1.9140 (N11257)-27.35E-06 (X_U4A.6)-352.8E-06                       

(X_U4A.7)    3.7216                   (X_U4A.8)    3.7216                       

(X_U4A.9)    0.0000                   (X_U4B.6) 116.0E-09                       

(X_U4B.7)    -.0012                   (X_U4B.8)    -.0012                       

(X_U4B.9)    0.0000                   (X_U5A.6)-56.45E-09                       

(X_U5A.7) 597.4E-06                   (X_U5A.8) 597.4E-06                       

(X_U5A.9)    0.0000                   (X_U5B.6)    1.6371                       

(X_U5B.7)  -10.5310                   (X_U5B.8)  -10.5310                       

(X_U5B.9)    0.0000                   (X_U4A.10)     .3992                      

(X_U4A.11)    9.5748                  (X_U4A.12)    9.5747                      

(X_U4A.53)    7.6842                  (X_U4A.54)   -7.6842                      

(X_U4A.90)     .8179                  (X_U4A.91)   40.0000                      

(X_U4A.92)  -40.0000                  (X_U4A.99)    0.0000                      

(X_U4B.10)     .3992                  (X_U4B.11)    9.5747                      

(X_U4B.12)    9.5747                  (X_U4B.53)    7.6842                      

(X_U4B.54)   -7.6842                  (X_U4B.90)-56.23E-06                      

(X_U4B.91)   40.0000                  (X_U4B.92)  -40.0000                      

(X_U4B.99)    0.0000                  (X_U5A.10)     .3992                      

(X_U5A.11)    9.5747                  (X_U5A.12)    9.5747                      

(X_U5A.53)    7.6842                  (X_U5A.54)   -7.6842                      

(X_U5A.90) 55.60E-06                  (X_U5A.91)   40.0000                      

(X_U5A.92)  -40.0000                  (X_U5A.99)    0.0000                      

(X_U5B.10)     .4312                  (X_U5B.11)    9.5313                      

(X_U5B.12)    9.6181                  (X_U5B.53)    7.6842                      

(X_U5B.54)   -7.6842                  (X_U5B.90)  -40.6130                      

(X_U5B.91)   40.0000                  (X_U5B.92)  -40.0000                      

(X_U5B.99)    0.0000                  




    VOLTAGE SOURCE CURRENTS
    NAME         CURRENT

    V_V4         2.208E-02
    V_V3        -6.188E-02
    X_U4A.vb    -3.528E-09
    X_U4A.vc     4.004E-12
    X_U4A.ve     1.242E-11
    X_U4A.vlim   8.179E-04
    X_U4A.vlp   -3.918E-11
    X_U4A.vln   -4.082E-11
    X_U4B.vb     1.160E-12
    X_U4B.vc     7.686E-12
    X_U4B.ve     8.736E-12
    X_U4B.vlim  -5.623E-08
    X_U4B.vlp   -4.000E-11
    X_U4B.vln   -4.000E-11
    X_U5A.vb    -5.645E-13
    X_U5A.vc     7.684E-12
    X_U5A.ve     8.737E-12
    X_U5A.vlim   5.560E-08
    X_U5A.vlp   -4.000E-11
    X_U5A.vln   -4.000E-11
    X_U5B.vb     1.637E-05
    X_U5B.vc     1.619E-11
    X_U5B.ve    -3.979E-02
    X_U5B.vlim  -4.061E-02
    X_U5B.vlp   -8.061E-11
    X_U5B.vln    1.558E-05

    TOTAL POWER DISSIPATION   9.31E-01  WATTS


**** 05/18/25 15:14:57 **** PSpice 24.1.0 (23 January 2025) *** ID# 0 ********

 ** Profile: "SCHEMATIC1-monte_carlo"  [ C:\Users\peleg\Desktop\Proiect Cad Final\proiectcad2\proiectcad2-pspicefiles\schematic1\mont


 ****     INITIAL TRANSIENT SOLUTION       TEMPERATURE =   27.000 DEG C

                      MONTE CARLO PASS 9

******************************************************************************



 NODE   VOLTAGE     NODE   VOLTAGE     NODE   VOLTAGE     NODE   VOLTAGE


(   10)   10.0000  (  -10)  -10.0000  (  PWM)   -3.9830  (N00142) 14.13E-06     

(N00159)    -.0012 (N00319)-18.75E-06 (N00323)-15.16E-06 (N00327)-14.13E-06     

(N00472) 556.0E-06 (N00645)    -.0404 (N06722)    8.4999 (N09194)    5.9908     

(N09198)   -2.0508 (N11257) 133.7E-09 (X_U4A.6) 381.8E-06                       

(X_U4A.7)   -4.0272                   (X_U4A.8)   -4.0272                       

(X_U4A.9)    0.0000                   (X_U4B.6) 116.0E-09                       

(X_U4B.7)    -.0012                   (X_U4B.8)    -.0012                       

(X_U4B.9)    0.0000                   (X_U5A.6)-52.81E-09                       

(X_U5A.7) 558.8E-06                   (X_U5A.8) 558.8E-06                       

(X_U5A.9)    0.0000                   (X_U5B.6)   -1.0915                       

(X_U5B.7)   10.5300                   (X_U5B.8)   10.5300                       

(X_U5B.9)    0.0000                   (X_U4A.10)     .3992                      

(X_U4A.11)    9.5747                  (X_U4A.12)    9.5747                      

(X_U4A.53)    7.6842                  (X_U4A.54)   -7.6842                      

(X_U4A.90)    -.8851                  (X_U4A.91)   40.0000                      

(X_U4A.92)  -40.0000                  (X_U4A.99)    0.0000                      

(X_U4B.10)     .3992                  (X_U4B.11)    9.5747                      

(X_U4B.12)    9.5747                  (X_U4B.53)    7.6842                      

(X_U4B.54)   -7.6842                  (X_U4B.90)-55.92E-06                      

(X_U4B.91)   40.0000                  (X_U4B.92)  -40.0000                      

(X_U4B.99)    0.0000                  (X_U5A.10)     .3992                      

(X_U5A.11)    9.5747                  (X_U5A.12)    9.5747                      

(X_U5A.53)    7.6842                  (X_U5A.54)   -7.6842                      

(X_U5A.90) 55.29E-06                  (X_U5A.91)   40.0000                      

(X_U5A.92)  -40.0000                  (X_U5A.99)    0.0000                      

(X_U5B.10)     .3797                  (X_U5B.11)    9.6037                      

(X_U5B.12)    9.5458                  (X_U5B.53)    7.6842                      

(X_U5B.54)   -7.6842                  (X_U5B.90)   40.6020                      

(X_U5B.91)   40.0000                  (X_U5B.92)  -40.0000                      

(X_U5B.99)    0.0000                  




    VOLTAGE SOURCE CURRENTS
    NAME         CURRENT

    V_V4         6.189E-02
    V_V3        -2.217E-02
    X_U4A.vb     3.818E-09
    X_U4A.vc     1.167E-11
    X_U4A.ve     4.754E-12
    X_U4A.vlim  -8.851E-04
    X_U4A.vlp   -4.089E-11
    X_U4A.vln   -3.912E-11
    X_U4B.vb     1.160E-12
    X_U4B.vc     7.686E-12
    X_U4B.ve     8.736E-12
    X_U4B.vlim  -5.592E-08
    X_U4B.vlp   -4.000E-11
    X_U4B.vln   -4.000E-11
    X_U5A.vb    -5.281E-13
    X_U5A.vc     7.684E-12
    X_U5A.ve     8.737E-12
    X_U5A.vlim   5.529E-08
    X_U5A.vlp   -4.000E-11
    X_U5A.vln   -4.000E-11
    X_U5B.vb    -1.092E-05
    X_U5B.vc    -3.972E-02
    X_U5B.ve     1.724E-11
    X_U5B.vlim   4.060E-02
    X_U5B.vlp    1.007E-05
    X_U5B.vln   -8.060E-11

    TOTAL POWER DISSIPATION   9.32E-01  WATTS


**** 05/18/25 15:14:57 **** PSpice 24.1.0 (23 January 2025) *** ID# 0 ********

 ** Profile: "SCHEMATIC1-monte_carlo"  [ C:\Users\peleg\Desktop\Proiect Cad Final\proiectcad2\proiectcad2-pspicefiles\schematic1\mont


 ****     INITIAL TRANSIENT SOLUTION       TEMPERATURE =   27.000 DEG C

                      MONTE CARLO PASS 10

******************************************************************************



 NODE   VOLTAGE     NODE   VOLTAGE     NODE   VOLTAGE     NODE   VOLTAGE


(   10)   10.0000  (  -10)  -10.0000  (  PWM)   -3.7425  (N00142) 14.13E-06     

(N00159)    -.0012 (N00319)-18.42E-06 (N00323)-15.22E-06 (N00327)-14.13E-06     

(N00472) 607.8E-06 (N00645)    -.0340 (N06722)    8.4999 (N09194)    5.9560     

(N09198)   -2.0307 (N11257)-687.8E-09 (X_U4A.6) 358.8E-06                       

(X_U4A.7)   -3.7841                   (X_U4A.8)   -3.7841                       

(X_U4A.9)    0.0000                   (X_U4B.6) 116.0E-09                       

(X_U4B.7)    -.0012                   (X_U4B.8)    -.0012                       

(X_U4B.9)    0.0000                   (X_U5A.6)-57.71E-09                       

(X_U5A.7) 610.7E-06                   (X_U5A.8) 610.7E-06                       

(X_U5A.9)    0.0000                   (X_U5B.6)    -.9228                       

(X_U5B.7)   10.5300                   (X_U5B.8)   10.5300                       

(X_U5B.9)    0.0000                   (X_U4A.10)     .3992                      

(X_U4A.11)    9.5747                  (X_U4A.12)    9.5747                      

(X_U4A.53)    7.6842                  (X_U4A.54)   -7.6842                      

(X_U4A.90)    -.8317                  (X_U4A.91)   40.0000                      

(X_U4A.92)  -40.0000                  (X_U4A.99)    0.0000                      

(X_U4B.10)     .3992                  (X_U4B.11)    9.5747                      

(X_U4B.12)    9.5747                  (X_U4B.53)    7.6842                      

(X_U4B.54)   -7.6842                  (X_U4B.90)-58.81E-06                      

(X_U4B.91)   40.0000                  (X_U4B.92)  -40.0000                      

(X_U4B.99)    0.0000                  (X_U5A.10)     .3992                      

(X_U5A.11)    9.5747                  (X_U5A.12)    9.5747                      

(X_U5A.53)    7.6842                  (X_U5A.54)   -7.6842                      

(X_U5A.90) 58.18E-06                  (X_U5A.91)   40.0000                      

(X_U5A.92)  -40.0000                  (X_U5A.99)    0.0000                      

(X_U5B.10)     .3828                  (X_U5B.11)    9.5993                      

(X_U5B.12)    9.5503                  (X_U5B.53)    7.6842                      

(X_U5B.54)   -7.6842                  (X_U5B.90)   40.5970                      

(X_U5B.91)   40.0000                  (X_U5B.92)  -40.0000                      

(X_U5B.99)    0.0000                  




    VOLTAGE SOURCE CURRENTS
    NAME         CURRENT

    V_V4         6.188E-02
    V_V3        -2.212E-02
    X_U4A.vb     3.588E-09
    X_U4A.vc     1.143E-11
    X_U4A.ve     4.994E-12
    X_U4A.vlim  -8.317E-04
    X_U4A.vlp   -4.083E-11
    X_U4A.vln   -3.917E-11
    X_U4B.vb     1.160E-12
    X_U4B.vc     7.686E-12
    X_U4B.ve     8.736E-12
    X_U4B.vlim  -5.881E-08
    X_U4B.vlp   -4.000E-11
    X_U4B.vln   -4.000E-11
    X_U5A.vb    -5.771E-13
    X_U5A.vc     7.684E-12
    X_U5A.ve     8.737E-12
    X_U5A.vlim   5.818E-08
    X_U5A.vlp   -4.000E-11
    X_U5A.vln   -4.000E-11
    X_U5B.vb    -9.228E-06
    X_U5B.vc    -3.977E-02
    X_U5B.ve     1.724E-11
    X_U5B.vlim   4.060E-02
    X_U5B.vlp    8.367E-06
    X_U5B.vln   -8.060E-11

    TOTAL POWER DISSIPATION   9.32E-01  WATTS


**** 05/18/25 15:14:57 **** PSpice 24.1.0 (23 January 2025) *** ID# 0 ********

 ** Profile: "SCHEMATIC1-monte_carlo"  [ C:\Users\peleg\Desktop\Proiect Cad Final\proiectcad2\proiectcad2-pspicefiles\schematic1\mont


 ****     INITIAL TRANSIENT SOLUTION       TEMPERATURE =   27.000 DEG C

                      MONTE CARLO PASS 11

******************************************************************************



 NODE   VOLTAGE     NODE   VOLTAGE     NODE   VOLTAGE     NODE   VOLTAGE


(   10)   10.0000  (  -10)  -10.0000  (  PWM)    3.9874  (N00142) 14.13E-06     

(N00159)    -.0012 (N00319)-18.79E-06 (N00323)-15.15E-06 (N00327)-14.13E-06     

(N00472) 610.1E-06 (N00645)     .1239 (N06722)   -8.4999 (N09194)    6.0958     

(N09198)   -1.8667 (N11257)-28.52E-06 (X_U4A.6)-382.2E-06                       

(X_U4A.7)    4.0317                   (X_U4A.8)    4.0317                       

(X_U4A.9)    0.0000                   (X_U4B.6) 116.1E-09                       

(X_U4B.7)    -.0012                   (X_U4B.8)    -.0012                       

(X_U4B.9)    0.0000                   (X_U5A.6)-57.93E-09                       

(X_U5A.7) 613.0E-06                   (X_U5A.8) 613.0E-06                       

(X_U5A.9)    0.0000                   (X_U5B.6)    3.2746                       

(X_U5B.7)  -10.5310                   (X_U5B.8)  -10.5310                       

(X_U5B.9)    0.0000                   (X_U4A.10)     .3992                      

(X_U4A.11)    9.5748                  (X_U4A.12)    9.5747                      

(X_U4A.53)    7.6842                  (X_U4A.54)   -7.6842                      

(X_U4A.90)     .8861                  (X_U4A.91)   40.0000                      

(X_U4A.92)  -40.0000                  (X_U4A.99)    0.0000                      

(X_U4B.10)     .3992                  (X_U4B.11)    9.5747                      

(X_U4B.12)    9.5747                  (X_U4B.53)    7.6842                      

(X_U4B.54)   -7.6842                  (X_U4B.90)-58.61E-06                      

(X_U4B.91)   40.0000                  (X_U4B.92)  -40.0000                      

(X_U4B.99)    0.0000                  (X_U5A.10)     .3992                      

(X_U5A.11)    9.5747                  (X_U5A.12)    9.5747                      

(X_U5A.53)    7.6842                  (X_U5A.54)   -7.6842                      

(X_U5A.90) 57.98E-06                  (X_U5A.91)   40.0000                      

(X_U5A.92)  -40.0000                  (X_U5A.99)    0.0000                      

(X_U5B.10)     .4645                  (X_U5B.11)    9.4878                      

(X_U5B.12)    9.6614                  (X_U5B.53)    7.6842                      

(X_U5B.54)   -7.6842                  (X_U5B.90)  -40.6320                      

(X_U5B.91)   40.0000                  (X_U5B.92)  -40.0000                      

(X_U5B.99)    0.0000                  




    VOLTAGE SOURCE CURRENTS
    NAME         CURRENT

    V_V4         2.214E-02
    V_V3        -6.188E-02
    X_U4A.vb    -3.822E-09
    X_U4A.vc     3.698E-12
    X_U4A.ve     1.272E-11
    X_U4A.vlim   8.861E-04
    X_U4A.vlp   -3.911E-11
    X_U4A.vln   -4.089E-11
    X_U4B.vb     1.161E-12
    X_U4B.vc     7.686E-12
    X_U4B.ve     8.736E-12
    X_U4B.vlim  -5.861E-08
    X_U4B.vlp   -4.000E-11
    X_U4B.vln   -4.000E-11
    X_U5A.vb    -5.793E-13
    X_U5A.vc     7.684E-12
    X_U5A.ve     8.737E-12
    X_U5A.vlim   5.798E-08
    X_U5A.vlp   -4.000E-11
    X_U5A.vln   -4.000E-11
    X_U5B.vb     3.275E-05
    X_U5B.vc     1.618E-11
    X_U5B.ve    -3.975E-02
    X_U5B.vlim  -4.063E-02
    X_U5B.vlp   -8.063E-11
    X_U5B.vln    3.213E-05

    TOTAL POWER DISSIPATION   9.31E-01  WATTS


**** 05/18/25 15:14:57 **** PSpice 24.1.0 (23 January 2025) *** ID# 0 ********

 ** Profile: "SCHEMATIC1-monte_carlo"  [ C:\Users\peleg\Desktop\Proiect Cad Final\proiectcad2\proiectcad2-pspicefiles\schematic1\mont


 ****     INITIAL TRANSIENT SOLUTION       TEMPERATURE =   27.000 DEG C

                      MONTE CARLO PASS 12

******************************************************************************



 NODE   VOLTAGE     NODE   VOLTAGE     NODE   VOLTAGE     NODE   VOLTAGE


(   10)   10.0000  (  -10)  -10.0000  (  PWM)   -3.6523  (N00142) 14.13E-06     

(N00159)    -.0012 (N00319)-18.75E-06 (N00323)-15.19E-06 (N00327)-14.13E-06     

(N00472) 570.5E-06 (N00645)    -.1285 (N06722)    8.5000 (N09194)    5.9282     

(N09198)   -2.1474 (N11257)-1.004E-06 (X_U4A.6) 350.1E-06                       

(X_U4A.7)   -3.6929                   (X_U4A.8)   -3.6929                       

(X_U4A.9)    0.0000                   (X_U4B.6) 116.0E-09                       

(X_U4B.7)    -.0012                   (X_U4B.8)    -.0012                       

(X_U4B.9)    0.0000                   (X_U5A.6)-54.17E-09                       

(X_U5A.7) 573.2E-06                   (X_U5A.8) 573.2E-06                       

(X_U5A.9)    0.0000                   (X_U5B.6)   -3.4229                       

(X_U5B.7)   10.5320                   (X_U5B.8)   10.5320                       

(X_U5B.9)    0.0000                   (X_U4A.10)     .3992                      

(X_U4A.11)    9.5747                  (X_U4A.12)    9.5747                      

(X_U4A.53)    7.6842                  (X_U4A.54)   -7.6842                      

(X_U4A.90)    -.8116                  (X_U4A.91)   40.0000                      

(X_U4A.92)  -40.0000                  (X_U4A.99)    0.0000                      

(X_U4B.10)     .3992                  (X_U4B.11)    9.5747                      

(X_U4B.12)    9.5747                  (X_U4B.53)    7.6842                      

(X_U4B.54)   -7.6842                  (X_U4B.90)-56.15E-06                      

(X_U4B.91)   40.0000                  (X_U4B.92)  -40.0000                      

(X_U4B.99)    0.0000                  (X_U5A.10)     .3992                      

(X_U5A.11)    9.5747                  (X_U5A.12)    9.5747                      

(X_U5A.53)    7.6842                  (X_U5A.54)   -7.6842                      

(X_U5A.90) 55.52E-06                  (X_U5A.91)   40.0000                      

(X_U5A.92)  -40.0000                  (X_U5A.99)    0.0000                      

(X_U5B.10)     .3388                  (X_U5B.11)    9.6657                      

(X_U5B.12)    9.4841                  (X_U5B.53)    7.6842                      

(X_U5B.54)   -7.6842                  (X_U5B.90)   40.6330                      

(X_U5B.91)   40.0000                  (X_U5B.92)  -40.0000                      

(X_U5B.99)    0.0000                  




    VOLTAGE SOURCE CURRENTS
    NAME         CURRENT

    V_V4         6.189E-02
    V_V3        -2.207E-02
    X_U4A.vb     3.501E-09
    X_U4A.vc     1.134E-11
    X_U4A.ve     5.084E-12
    X_U4A.vlim  -8.116E-04
    X_U4A.vlp   -4.081E-11
    X_U4A.vln   -3.919E-11
    X_U4B.vb     1.160E-12
    X_U4B.vc     7.686E-12
    X_U4B.ve     8.736E-12
    X_U4B.vlim  -5.615E-08
    X_U4B.vlp   -4.000E-11
    X_U4B.vln   -4.000E-11
    X_U5A.vb    -5.417E-13
    X_U5A.vc     7.684E-12
    X_U5A.ve     8.737E-12
    X_U5A.vlim   5.552E-08
    X_U5A.vlp   -4.000E-11
    X_U5A.vln   -4.000E-11
    X_U5B.vb    -3.423E-05
    X_U5B.vc    -3.982E-02
    X_U5B.ve     1.724E-11
    X_U5B.vlim   4.063E-02
    X_U5B.vlp    3.363E-05
    X_U5B.vln   -8.063E-11

    TOTAL POWER DISSIPATION   9.31E-01  WATTS


**** 05/18/25 15:14:57 **** PSpice 24.1.0 (23 January 2025) *** ID# 0 ********

 ** Profile: "SCHEMATIC1-monte_carlo"  [ C:\Users\peleg\Desktop\Proiect Cad Final\proiectcad2\proiectcad2-pspicefiles\schematic1\mont


 ****     INITIAL TRANSIENT SOLUTION       TEMPERATURE =   27.000 DEG C

                      MONTE CARLO PASS 13

******************************************************************************



 NODE   VOLTAGE     NODE   VOLTAGE     NODE   VOLTAGE     NODE   VOLTAGE


(   10)   10.0000  (  -10)  -10.0000  (  PWM)   -3.9851  (N00142) 14.13E-06     

(N00159)    -.0012 (N00319)-18.78E-06 (N00323)-15.24E-06 (N00327)-14.13E-06     

(N00472) 575.9E-06 (N00645)    -.0840 (N06722)    8.4999 (N09194)    5.9613     

(N09198)   -2.0992 (N11257) 183.9E-09 (X_U4A.6) 382.0E-06                       

(X_U4A.7)   -4.0294                   (X_U4A.8)   -4.0294                       

(X_U4A.9)    0.0000                   (X_U4B.6) 116.1E-09                       

(X_U4B.7)    -.0012                   (X_U4B.8)    -.0012                       

(X_U4B.9)    0.0000                   (X_U5A.6)-54.70E-09                       

(X_U5A.7) 578.7E-06                   (X_U5A.8) 578.7E-06                       

(X_U5A.9)    0.0000                   (X_U5B.6)   -2.2515                       

(X_U5B.7)   10.5310                   (X_U5B.8)   10.5310                       

(X_U5B.9)    0.0000                   (X_U4A.10)     .3992                      

(X_U4A.11)    9.5747                  (X_U4A.12)    9.5747                      

(X_U4A.53)    7.6842                  (X_U4A.54)   -7.6842                      

(X_U4A.90)    -.8856                  (X_U4A.91)   40.0000                      

(X_U4A.92)  -40.0000                  (X_U4A.99)    0.0000                      

(X_U4B.10)     .3992                  (X_U4B.11)    9.5747                      

(X_U4B.12)    9.5747                  (X_U4B.53)    7.6842                      

(X_U4B.54)   -7.6842                  (X_U4B.90)-58.52E-06                      

(X_U4B.91)   40.0000                  (X_U4B.92)  -40.0000                      

(X_U4B.99)    0.0000                  (X_U5A.10)     .3992                      

(X_U5A.11)    9.5747                  (X_U5A.12)    9.5747                      

(X_U5A.53)    7.6842                  (X_U5A.54)   -7.6842                      

(X_U5A.90) 57.89E-06                  (X_U5A.91)   40.0000                      

(X_U5A.92)  -40.0000                  (X_U5A.99)    0.0000                      

(X_U5B.10)     .3590                  (X_U5B.11)    9.6346                      

(X_U5B.12)    9.5151                  (X_U5B.53)    7.6842                      

(X_U5B.54)   -7.6842                  (X_U5B.90)   40.6210                      

(X_U5B.91)   40.0000                  (X_U5B.92)  -40.0000                      

(X_U5B.99)    0.0000                  




    VOLTAGE SOURCE CURRENTS
    NAME         CURRENT

    V_V4         6.189E-02
    V_V3        -2.216E-02
    X_U4A.vb     3.820E-09
    X_U4A.vc     1.167E-11
    X_U4A.ve     4.752E-12
    X_U4A.vlim  -8.856E-04
    X_U4A.vlp   -4.089E-11
    X_U4A.vln   -3.912E-11
    X_U4B.vb     1.161E-12
    X_U4B.vc     7.686E-12
    X_U4B.ve     8.736E-12
    X_U4B.vlim  -5.852E-08
    X_U4B.vlp   -4.000E-11
    X_U4B.vln   -4.000E-11
    X_U5A.vb    -5.470E-13
    X_U5A.vc     7.684E-12
    X_U5A.ve     8.737E-12
    X_U5A.vlim   5.789E-08
    X_U5A.vlp   -4.000E-11
    X_U5A.vln   -4.000E-11
    X_U5B.vb    -2.252E-05
    X_U5B.vc    -3.974E-02
    X_U5B.ve     1.724E-11
    X_U5B.vlim   4.062E-02
    X_U5B.vlp    2.179E-05
    X_U5B.vln   -8.062E-11

    TOTAL POWER DISSIPATION   9.32E-01  WATTS


**** 05/18/25 15:14:57 **** PSpice 24.1.0 (23 January 2025) *** ID# 0 ********

 ** Profile: "SCHEMATIC1-monte_carlo"  [ C:\Users\peleg\Desktop\Proiect Cad Final\proiectcad2\proiectcad2-pspicefiles\schematic1\mont


 ****     INITIAL TRANSIENT SOLUTION       TEMPERATURE =   27.000 DEG C

                      MONTE CARLO PASS 14

******************************************************************************



 NODE   VOLTAGE     NODE   VOLTAGE     NODE   VOLTAGE     NODE   VOLTAGE


(   10)   10.0000  (  -10)  -10.0000  (  PWM)   -3.7365  (N00142) 14.13E-06     

(N00159)    -.0012 (N00319)-18.51E-06 (N00323)-15.19E-06 (N00327)-14.13E-06     

(N00472) 608.9E-06 (N00645)    -.0727 (N06722)    8.4999 (N09194)    5.9475     

(N09198)   -2.0794 (N11257)-709.2E-09 (X_U4A.6) 358.2E-06                       

(X_U4A.7)   -3.7780                   (X_U4A.8)   -3.7780                       

(X_U4A.9)    0.0000                   (X_U4B.6) 116.0E-09                       

(X_U4B.7)    -.0012                   (X_U4B.8)    -.0012                       

(X_U4B.9)    0.0000                   (X_U5A.6)-57.80E-09                       

(X_U5A.7) 611.7E-06                   (X_U5A.8) 611.7E-06                       

(X_U5A.9)    0.0000                   (X_U5B.6)   -1.9512                       

(X_U5B.7)   10.5310                   (X_U5B.8)   10.5310                       

(X_U5B.9)    0.0000                   (X_U4A.10)     .3992                      

(X_U4A.11)    9.5747                  (X_U4A.12)    9.5747                      

(X_U4A.53)    7.6842                  (X_U4A.54)   -7.6842                      

(X_U4A.90)    -.8303                  (X_U4A.91)   40.0000                      

(X_U4A.92)  -40.0000                  (X_U4A.99)    0.0000                      

(X_U4B.10)     .3992                  (X_U4B.11)    9.5747                      

(X_U4B.12)    9.5747                  (X_U4B.53)    7.6842                      

(X_U4B.54)   -7.6842                  (X_U4B.90)-57.20E-06                      

(X_U4B.91)   40.0000                  (X_U4B.92)  -40.0000                      

(X_U4B.99)    0.0000                  (X_U5A.10)     .3992                      

(X_U5A.11)    9.5747                  (X_U5A.12)    9.5747                      

(X_U5A.53)    7.6842                  (X_U5A.54)   -7.6842                      

(X_U5A.90) 56.57E-06                  (X_U5A.91)   40.0000                      

(X_U5A.92)  -40.0000                  (X_U5A.99)    0.0000                      

(X_U5B.10)     .3643                  (X_U5B.11)    9.6266                      

(X_U5B.12)    9.5230                  (X_U5B.53)    7.6842                      

(X_U5B.54)   -7.6842                  (X_U5B.90)   40.6180                      

(X_U5B.91)   40.0000                  (X_U5B.92)  -40.0000                      

(X_U5B.99)    0.0000                  




    VOLTAGE SOURCE CURRENTS
    NAME         CURRENT

    V_V4         6.189E-02
    V_V3        -2.210E-02
    X_U4A.vb     3.582E-09
    X_U4A.vc     1.142E-11
    X_U4A.ve     5.000E-12
    X_U4A.vlim  -8.303E-04
    X_U4A.vlp   -4.083E-11
    X_U4A.vln   -3.917E-11
    X_U4B.vb     1.160E-12
    X_U4B.vc     7.686E-12
    X_U4B.ve     8.736E-12
    X_U4B.vlim  -5.720E-08
    X_U4B.vlp   -4.000E-11
    X_U4B.vln   -4.000E-11
    X_U5A.vb    -5.780E-13
    X_U5A.vc     7.684E-12
    X_U5A.ve     8.737E-12
    X_U5A.vlim   5.657E-08
    X_U5A.vlp   -4.000E-11
    X_U5A.vln   -4.000E-11
    X_U5B.vb    -1.951E-05
    X_U5B.vc    -3.979E-02
    X_U5B.ve     1.724E-11
    X_U5B.vlim   4.062E-02
    X_U5B.vlp    1.876E-05
    X_U5B.vln   -8.062E-11

    TOTAL POWER DISSIPATION   9.31E-01  WATTS


**** 05/18/25 15:14:57 **** PSpice 24.1.0 (23 January 2025) *** ID# 0 ********

 ** Profile: "SCHEMATIC1-monte_carlo"  [ C:\Users\peleg\Desktop\Proiect Cad Final\proiectcad2\proiectcad2-pspicefiles\schematic1\mont


 ****     INITIAL TRANSIENT SOLUTION       TEMPERATURE =   27.000 DEG C

                      MONTE CARLO PASS 15

******************************************************************************



 NODE   VOLTAGE     NODE   VOLTAGE     NODE   VOLTAGE     NODE   VOLTAGE


(   10)   10.0000  (  -10)  -10.0000  (  PWM)   -3.6465  (N00142) 14.13E-06     

(N00159)    -.0012 (N00319)-18.82E-06 (N00323)-15.22E-06 (N00327)-14.13E-06     

(N00472) 577.4E-06 (N00645)    -.1484 (N06722)    8.5000 (N09194)    5.9312     

(N09198)   -2.1749 (N11257)-1.033E-06 (X_U4A.6) 349.6E-06                       

(X_U4A.7)   -3.6870                   (X_U4A.8)   -3.6870                       

(X_U4A.9)    0.0000                   (X_U4B.6) 116.1E-09                       

(X_U4B.7)    -.0012                   (X_U4B.8)    -.0012                       

(X_U4B.9)    0.0000                   (X_U5A.6)-54.83E-09                       

(X_U5A.7) 580.2E-06                   (X_U5A.8) 580.2E-06                       

(X_U5A.9)    0.0000                   (X_U5B.6)   -3.9439                       

(X_U5B.7)   10.5320                   (X_U5B.8)   10.5320                       

(X_U5B.9)    0.0000                   (X_U4A.10)     .3992                      

(X_U4A.11)    9.5747                  (X_U4A.12)    9.5747                      

(X_U4A.53)    7.6842                  (X_U4A.54)   -7.6842                      

(X_U4A.90)    -.8103                  (X_U4A.91)   40.0000                      

(X_U4A.92)  -40.0000                  (X_U4A.99)    0.0000                      

(X_U4B.10)     .3992                  (X_U4B.11)    9.5747                      

(X_U4B.12)    9.5747                  (X_U4B.53)    7.6842                      

(X_U4B.54)   -7.6842                  (X_U4B.90)-57.11E-06                      

(X_U4B.91)   40.0000                  (X_U4B.92)  -40.0000                      

(X_U4B.99)    0.0000                  (X_U5A.10)     .3992                      

(X_U5A.11)    9.5747                  (X_U5A.12)    9.5747                      

(X_U5A.53)    7.6842                  (X_U5A.54)   -7.6842                      

(X_U5A.90) 56.48E-06                  (X_U5A.91)   40.0000                      

(X_U5A.92)  -40.0000                  (X_U5A.99)    0.0000                      

(X_U5B.10)     .3300                  (X_U5B.11)    9.6795                      

(X_U5B.12)    9.4703                  (X_U5B.53)    7.6842                      

(X_U5B.54)   -7.6842                  (X_U5B.90)   40.6360                      

(X_U5B.91)   40.0000                  (X_U5B.92)  -40.0000                      

(X_U5B.99)    0.0000                  




    VOLTAGE SOURCE CURRENTS
    NAME         CURRENT

    V_V4         6.190E-02
    V_V3        -2.207E-02
    X_U4A.vb     3.496E-09
    X_U4A.vc     1.133E-11
    X_U4A.ve     5.090E-12
    X_U4A.vlim  -8.103E-04
    X_U4A.vlp   -4.081E-11
    X_U4A.vln   -3.919E-11
    X_U4B.vb     1.161E-12
    X_U4B.vc     7.686E-12
    X_U4B.ve     8.736E-12
    X_U4B.vlim  -5.711E-08
    X_U4B.vlp   -4.000E-11
    X_U4B.vln   -4.000E-11
    X_U5A.vb    -5.483E-13
    X_U5A.vc     7.684E-12
    X_U5A.ve     8.737E-12
    X_U5A.vlim   5.648E-08
    X_U5A.vlp   -4.000E-11
    X_U5A.vln   -4.000E-11
    X_U5B.vb    -3.944E-05
    X_U5B.vc    -3.983E-02
    X_U5B.ve     1.724E-11
    X_U5B.vlim   4.064E-02
    X_U5B.vlp    3.889E-05
    X_U5B.vln   -8.064E-11

    TOTAL POWER DISSIPATION   9.30E-01  WATTS


**** 05/18/25 15:14:57 **** PSpice 24.1.0 (23 January 2025) *** ID# 0 ********

 ** Profile: "SCHEMATIC1-monte_carlo"  [ C:\Users\peleg\Desktop\Proiect Cad Final\proiectcad2\proiectcad2-pspicefiles\schematic1\mont


 ****     INITIAL TRANSIENT SOLUTION       TEMPERATURE =   27.000 DEG C

                      MONTE CARLO PASS 16

******************************************************************************



 NODE   VOLTAGE     NODE   VOLTAGE     NODE   VOLTAGE     NODE   VOLTAGE


(   10)   10.0000  (  -10)  -10.0000  (  PWM)   -3.6602  (N00142) 14.13E-06     

(N00159)    -.0012 (N00319)-18.49E-06 (N00323)-15.21E-06 (N00327)-14.13E-06     

(N00472) 567.1E-06 (N00645)    -.0348 (N06722)    8.4999 (N09194)    5.9707     

(N09198)   -2.0366 (N11257)-983.2E-09 (X_U4A.6) 350.9E-06                       

(X_U4A.7)   -3.7009                   (X_U4A.8)   -3.7009                       

(X_U4A.9)    0.0000                   (X_U4B.6) 116.0E-09                       

(X_U4B.7)    -.0012                   (X_U4B.8)    -.0012                       

(X_U4B.9)    0.0000                   (X_U5A.6)-53.84E-09                       

(X_U5A.7) 569.8E-06                   (X_U5A.8) 569.8E-06                       

(X_U5A.9)    0.0000                   (X_U5B.6)    -.9420                       

(X_U5B.7)   10.5300                   (X_U5B.8)   10.5300                       

(X_U5B.9)    0.0000                   (X_U4A.10)     .3992                      

(X_U4A.11)    9.5747                  (X_U4A.12)    9.5747                      

(X_U4A.53)    7.6842                  (X_U4A.54)   -7.6842                      

(X_U4A.90)    -.8134                  (X_U4A.91)   40.0000                      

(X_U4A.92)  -40.0000                  (X_U4A.99)    0.0000                      

(X_U4B.10)     .3992                  (X_U4B.11)    9.5747                      

(X_U4B.12)    9.5747                  (X_U4B.53)    7.6842                      

(X_U4B.54)   -7.6842                  (X_U4B.90)-55.29E-06                      

(X_U4B.91)   40.0000                  (X_U4B.92)  -40.0000                      

(X_U4B.99)    0.0000                  (X_U5A.10)     .3992                      

(X_U5A.11)    9.5747                  (X_U5A.12)    9.5747                      

(X_U5A.53)    7.6842                  (X_U5A.54)   -7.6842                      

(X_U5A.90) 54.66E-06                  (X_U5A.91)   40.0000                      

(X_U5A.92)  -40.0000                  (X_U5A.99)    0.0000                      

(X_U5B.10)     .3824                  (X_U5B.11)    9.5998                      

(X_U5B.12)    9.5498                  (X_U5B.53)    7.6842                      

(X_U5B.54)   -7.6842                  (X_U5B.90)   40.5970                      

(X_U5B.91)   40.0000                  (X_U5B.92)  -40.0000                      

(X_U5B.99)    0.0000                  




    VOLTAGE SOURCE CURRENTS
    NAME         CURRENT

    V_V4         6.189E-02
    V_V3        -2.210E-02
    X_U4A.vb     3.509E-09
    X_U4A.vc     1.135E-11
    X_U4A.ve     5.076E-12
    X_U4A.vlim  -8.134E-04
    X_U4A.vlp   -4.081E-11
    X_U4A.vln   -3.919E-11
    X_U4B.vb     1.160E-12
    X_U4B.vc     7.686E-12
    X_U4B.ve     8.736E-12
    X_U4B.vlim  -5.529E-08
    X_U4B.vlp   -4.000E-11
    X_U4B.vln   -4.000E-11
    X_U5A.vb    -5.384E-13
    X_U5A.vc     7.684E-12
    X_U5A.ve     8.737E-12
    X_U5A.vlim   5.466E-08
    X_U5A.vlp   -4.000E-11
    X_U5A.vln   -4.000E-11
    X_U5B.vb    -9.420E-06
    X_U5B.vc    -3.978E-02
    X_U5B.ve     1.724E-11
    X_U5B.vlim   4.060E-02
    X_U5B.vlp    8.561E-06
    X_U5B.vln   -8.060E-11

    TOTAL POWER DISSIPATION   9.32E-01  WATTS


**** 05/18/25 15:14:57 **** PSpice 24.1.0 (23 January 2025) *** ID# 0 ********

 ** Profile: "SCHEMATIC1-monte_carlo"  [ C:\Users\peleg\Desktop\Proiect Cad Final\proiectcad2\proiectcad2-pspicefiles\schematic1\mont


 ****     INITIAL TRANSIENT SOLUTION       TEMPERATURE =   27.000 DEG C

                      MONTE CARLO PASS 17

******************************************************************************



 NODE   VOLTAGE     NODE   VOLTAGE     NODE   VOLTAGE     NODE   VOLTAGE


(   10)   10.0000  (  -10)  -10.0000  (  PWM)   -3.8493  (N00142) 14.13E-06     

(N00159)    -.0012 (N00319)-18.70E-06 (N00323)-15.24E-06 (N00327)-14.13E-06     

(N00472) 548.1E-06 (N00645)-111.2E-06 (N06722)    8.4548 (N09194)    5.9607     

(N09198)   -1.9870 (N11257)-304.0E-09 (X_U4A.6) 369.0E-06                       

(X_U4A.7)   -3.8921                   (X_U4A.8)   -3.8921                       

(X_U4A.9)    0.0000                   (X_U4B.6) 116.0E-09                       

(X_U4B.7)    -.0012                   (X_U4B.8)    -.0012                       

(X_U4B.9)    0.0000                   (X_U5A.6)-52.06E-09                       

(X_U5A.7) 550.8E-06                   (X_U5A.8) 550.8E-06                       

(X_U5A.9)    0.0000                   (X_U5B.6)    -.0172                       

(X_U5B.7)    8.8447                   (X_U5B.8)    8.8447                       

(X_U5B.9)    0.0000                   (X_U4A.10)     .3992                      

(X_U4A.11)    9.5747                  (X_U4A.12)    9.5747                      

(X_U4A.53)    7.6842                  (X_U4A.54)   -7.6842                      

(X_U4A.90)    -.8554                  (X_U4A.91)   40.0000                      

(X_U4A.92)  -40.0000                  (X_U4A.99)    0.0000                      

(X_U4B.10)     .3992                  (X_U4B.11)    9.5747                      

(X_U4B.12)    9.5747                  (X_U4B.53)    7.6842                      

(X_U4B.54)   -7.6842                  (X_U4B.90)-55.84E-06                      

(X_U4B.91)   40.0000                  (X_U4B.92)  -40.0000                      

(X_U4B.99)    0.0000                  (X_U5A.10)     .3992                      

(X_U5A.11)    9.5747                  (X_U5A.12)    9.5747                      

(X_U5A.53)    7.6842                  (X_U5A.54)   -7.6842                      

(X_U5A.90) 55.21E-06                  (X_U5A.91)   40.0000                      

(X_U5A.92)  -40.0000                  (X_U5A.99)    0.0000                      

(X_U5B.10)     .3994                  (X_U5B.11)    9.5752                      

(X_U5B.12)    9.5743                  (X_U5B.53)    7.6842                      

(X_U5B.54)   -7.6842                  (X_U5B.90)    7.7992                      

(X_U5B.91)   40.0000                  (X_U5B.92)  -40.0000                      

(X_U5B.99)    0.0000                  




    VOLTAGE SOURCE CURRENTS
    NAME         CURRENT

    V_V4         6.188E-02
    V_V3        -5.494E-02
    X_U4A.vb     3.690E-09
    X_U4A.vc     1.153E-11
    X_U4A.ve     4.887E-12
    X_U4A.vlim  -8.554E-04
    X_U4A.vlp   -4.086E-11
    X_U4A.vln   -3.915E-11
    X_U4B.vb     1.160E-12
    X_U4B.vc     7.686E-12
    X_U4B.ve     8.736E-12
    X_U4B.vlim  -5.584E-08
    X_U4B.vlp   -4.000E-11
    X_U4B.vln   -4.000E-11
    X_U5A.vb    -5.206E-13
    X_U5A.vc     7.684E-12
    X_U5A.ve     8.737E-12
    X_U5A.vlim   5.521E-08
    X_U5A.vlp   -4.000E-11
    X_U5A.vln   -4.000E-11
    X_U5B.vb    -1.721E-07
    X_U5B.vc    -6.944E-03
    X_U5B.ve     1.719E-11
    X_U5B.vlim   7.799E-03
    X_U5B.vlp   -3.220E-11
    X_U5B.vln   -4.780E-11

    TOTAL POWER DISSIPATION   1.18E+00  WATTS


**** 05/18/25 15:14:57 **** PSpice 24.1.0 (23 January 2025) *** ID# 0 ********

 ** Profile: "SCHEMATIC1-monte_carlo"  [ C:\Users\peleg\Desktop\Proiect Cad Final\proiectcad2\proiectcad2-pspicefiles\schematic1\mont


 ****     INITIAL TRANSIENT SOLUTION       TEMPERATURE =   27.000 DEG C

                      MONTE CARLO PASS 18

******************************************************************************



 NODE   VOLTAGE     NODE   VOLTAGE     NODE   VOLTAGE     NODE   VOLTAGE


(   10)   10.0000  (  -10)  -10.0000  (  PWM)    3.6921  (N00142) 14.13E-06     

(N00159)    -.0012 (N00319)-18.53E-06 (N00323)-15.16E-06 (N00327)-14.13E-06     

(N00472) 590.5E-06 (N00645)     .1422 (N06722)   -8.5000 (N09194)    6.0471     

(N09198)   -1.8261 (N11257)-27.46E-06 (X_U4A.6)-353.9E-06                       

(X_U4A.7)    3.7332                   (X_U4A.8)    3.7332                       

(X_U4A.9)    0.0000                   (X_U4B.6) 116.0E-09                       

(X_U4B.7)    -.0012                   (X_U4B.8)    -.0012                       

(X_U4B.9)    0.0000                   (X_U5A.6)-56.06E-09                       

(X_U5A.7) 593.3E-06                   (X_U5A.8) 593.3E-06                       

(X_U5A.9)    0.0000                   (X_U5B.6)    3.7530                       

(X_U5B.7)  -10.5320                   (X_U5B.8)  -10.5320                       

(X_U5B.9)    0.0000                   (X_U4A.10)     .3992                      

(X_U4A.11)    9.5748                  (X_U4A.12)    9.5747                      

(X_U4A.53)    7.6842                  (X_U4A.54)   -7.6842                      

(X_U4A.90)     .8205                  (X_U4A.91)   40.0000                      

(X_U4A.92)  -40.0000                  (X_U4A.99)    0.0000                      

(X_U4B.10)     .3992                  (X_U4B.11)    9.5747                      

(X_U4B.12)    9.5747                  (X_U4B.53)    7.6842                      

(X_U4B.54)   -7.6842                  (X_U4B.90)-56.63E-06                      

(X_U4B.91)   40.0000                  (X_U4B.92)  -40.0000                      

(X_U4B.99)    0.0000                  (X_U5A.10)     .3992                      

(X_U5A.11)    9.5747                  (X_U5A.12)    9.5747                      

(X_U5A.53)    7.6842                  (X_U5A.54)   -7.6842                      

(X_U5A.90) 56.00E-06                  (X_U5A.91)   40.0000                      

(X_U5A.92)  -40.0000                  (X_U5A.99)    0.0000                      

(X_U5B.10)     .4746                  (X_U5B.11)    9.4750                      

(X_U5B.12)    9.6741                  (X_U5B.53)    7.6842                      

(X_U5B.54)   -7.6842                  (X_U5B.90)  -40.6350                      

(X_U5B.91)   40.0000                  (X_U5B.92)  -40.0000                      

(X_U5B.99)    0.0000                  




    VOLTAGE SOURCE CURRENTS
    NAME         CURRENT

    V_V4         2.206E-02
    V_V3        -6.187E-02
    X_U4A.vb    -3.539E-09
    X_U4A.vc     3.993E-12
    X_U4A.ve     1.243E-11
    X_U4A.vlim   8.205E-04
    X_U4A.vlp   -3.918E-11
    X_U4A.vln   -4.082E-11
    X_U4B.vb     1.160E-12
    X_U4B.vc     7.686E-12
    X_U4B.ve     8.736E-12
    X_U4B.vlim  -5.663E-08
    X_U4B.vlp   -4.000E-11
    X_U4B.vln   -4.000E-11
    X_U5A.vb    -5.606E-13
    X_U5A.vc     7.684E-12
    X_U5A.ve     8.737E-12
    X_U5A.vlim   5.600E-08
    X_U5A.vlp   -4.000E-11
    X_U5A.vln   -4.000E-11
    X_U5B.vb     3.753E-05
    X_U5B.vc     1.619E-11
    X_U5B.ve    -3.981E-02
    X_U5B.vlim  -4.064E-02
    X_U5B.vlp   -8.064E-11
    X_U5B.vln    3.696E-05

    TOTAL POWER DISSIPATION   9.30E-01  WATTS


**** 05/18/25 15:14:57 **** PSpice 24.1.0 (23 January 2025) *** ID# 0 ********

 ** Profile: "SCHEMATIC1-monte_carlo"  [ C:\Users\peleg\Desktop\Proiect Cad Final\proiectcad2\proiectcad2-pspicefiles\schematic1\mont


 ****     INITIAL TRANSIENT SOLUTION       TEMPERATURE =   27.000 DEG C

                      MONTE CARLO PASS 19

******************************************************************************



 NODE   VOLTAGE     NODE   VOLTAGE     NODE   VOLTAGE     NODE   VOLTAGE


(   10)   10.0000  (  -10)  -10.0000  (  PWM)    3.8436  (N00142) 14.13E-06     

(N00159)    -.0012 (N00319)-18.60E-06 (N00323)-15.15E-06 (N00327)-14.13E-06     

(N00472) 552.7E-06 (N00645)     .0760 (N06722)   -8.4999 (N09194)    6.0202     

(N09198)   -1.9055 (N11257)-27.94E-06 (X_U4A.6)-368.5E-06                       

(X_U4A.7)    3.8863                   (X_U4A.8)    3.8863                       

(X_U4A.9)    0.0000                   (X_U4B.6) 116.0E-09                       

(X_U4B.7)    -.0012                   (X_U4B.8)    -.0012                       

(X_U4B.9)    0.0000                   (X_U5A.6)-52.50E-09                       

(X_U5A.7) 555.5E-06                   (X_U5A.8) 555.5E-06                       

(X_U5A.9)    0.0000                   (X_U5B.6)    2.0087                       

(X_U5B.7)  -10.5310                   (X_U5B.8)  -10.5310                       

(X_U5B.9)    0.0000                   (X_U4A.10)     .3992                      

(X_U4A.11)    9.5748                  (X_U4A.12)    9.5747                      

(X_U4A.53)    7.6842                  (X_U4A.54)   -7.6842                      

(X_U4A.90)     .8541                  (X_U4A.91)   40.0000                      

(X_U4A.92)  -40.0000                  (X_U4A.99)    0.0000                      

(X_U4B.10)     .3992                  (X_U4B.11)    9.5747                      

(X_U4B.12)    9.5747                  (X_U4B.53)    7.6842                      

(X_U4B.54)   -7.6842                  (X_U4B.90)-56.10E-06                      

(X_U4B.91)   40.0000                  (X_U4B.92)  -40.0000                      

(X_U4B.99)    0.0000                  (X_U5A.10)     .3992                      

(X_U5A.11)    9.5747                  (X_U5A.12)    9.5747                      

(X_U5A.53)    7.6842                  (X_U5A.54)   -7.6842                      

(X_U5A.90) 55.47E-06                  (X_U5A.91)   40.0000                      

(X_U5A.92)  -40.0000                  (X_U5A.99)    0.0000                      

(X_U5B.10)     .4386                  (X_U5B.11)    9.5214                      

(X_U5B.12)    9.6279                  (X_U5B.53)    7.6842                      

(X_U5B.54)   -7.6842                  (X_U5B.90)  -40.6180                      

(X_U5B.91)   40.0000                  (X_U5B.92)  -40.0000                      

(X_U5B.99)    0.0000                  




    VOLTAGE SOURCE CURRENTS
    NAME         CURRENT

    V_V4         2.211E-02
    V_V3        -6.188E-02
    X_U4A.vb    -3.685E-09
    X_U4A.vc     3.841E-12
    X_U4A.ve     1.258E-11
    X_U4A.vlim   8.541E-04
    X_U4A.vlp   -3.915E-11
    X_U4A.vln   -4.086E-11
    X_U4B.vb     1.160E-12
    X_U4B.vc     7.686E-12
    X_U4B.ve     8.736E-12
    X_U4B.vlim  -5.610E-08
    X_U4B.vlp   -4.000E-11
    X_U4B.vln   -4.000E-11
    X_U5A.vb    -5.250E-13
    X_U5A.vc     7.684E-12
    X_U5A.ve     8.737E-12
    X_U5A.vlim   5.547E-08
    X_U5A.vlp   -4.000E-11
    X_U5A.vln   -4.000E-11
    X_U5B.vb     2.009E-05
    X_U5B.vc     1.618E-11
    X_U5B.ve    -3.976E-02
    X_U5B.vlim  -4.062E-02
    X_U5B.vlp   -8.062E-11
    X_U5B.vln    1.934E-05

    TOTAL POWER DISSIPATION   9.31E-01  WATTS


**** 05/18/25 15:14:57 **** PSpice 24.1.0 (23 January 2025) *** ID# 0 ********

 ** Profile: "SCHEMATIC1-monte_carlo"  [ C:\Users\peleg\Desktop\Proiect Cad Final\proiectcad2\proiectcad2-pspicefiles\schematic1\mont


 ****     INITIAL TRANSIENT SOLUTION       TEMPERATURE =   27.000 DEG C

                      MONTE CARLO PASS 20

******************************************************************************



 NODE   VOLTAGE     NODE   VOLTAGE     NODE   VOLTAGE     NODE   VOLTAGE


(   10)   10.0000  (  -10)  -10.0000  (  PWM)   -3.6835  (N00142) 14.13E-06     

(N00159)    -.0012 (N00319)-18.79E-06 (N00323)-15.20E-06 (N00327)-14.13E-06     

(N00472) 580.6E-06 (N00645)    -.0585 (N06722)    8.4999 (N09194)    6.0195     

(N09198)   -2.0845 (N11257)-899.9E-09 (X_U4A.6) 353.1E-06                       

(X_U4A.7)   -3.7244                   (X_U4A.8)   -3.7244                       

(X_U4A.9)    0.0000                   (X_U4B.6) 116.0E-09                       

(X_U4B.7)    -.0012                   (X_U4B.8)    -.0012                       

(X_U4B.9)    0.0000                   (X_U5A.6)-55.12E-09                       

(X_U5A.7) 583.3E-06                   (X_U5A.8) 583.3E-06                       

(X_U5A.9)    0.0000                   (X_U5B.6)   -1.5747                       

(X_U5B.7)   10.5310                   (X_U5B.8)   10.5310                       

(X_U5B.9)    0.0000                   (X_U4A.10)     .3992                      

[...]

(X_U5A.90) 55.31E-06                  (X_U5A.91)   40.0000                      

(X_U5A.92)  -40.0000                  (X_U5A.99)    0.0000                      

(X_U5B.10)     .5170                  (X_U5B.11)    9.4245                      

(X_U5B.12)    9.7245                  (X_U5B.53)    7.6842                      

(X_U5B.54)   -7.6842                  (X_U5B.90)  -40.6460                      

(X_U5B.91)   40.0000                  (X_U5B.92)  -40.0000                      

(X_U5B.99)    0.0000                  




    VOLTAGE SOURCE CURRENTS
    NAME         CURRENT

    V_V4         2.210E-02
    V_V3        -6.187E-02
    X_U4A.vb    -3.768E-09
    X_U4A.vc     3.755E-12
    X_U4A.ve     1.267E-11
    X_U4A.vlim   8.734E-04
    X_U4A.vlp   -3.913E-11
    X_U4A.vln   -4.087E-11
    X_U4B.vb     1.160E-12
    X_U4B.vc     7.686E-12
    X_U4B.ve     8.736E-12
    X_U4B.vlim  -5.594E-08
    X_U4B.vlp   -4.000E-11
    X_U4B.vln   -4.000E-11
    X_U5A.vb    -5.518E-13
    X_U5A.vc     7.684E-12
    X_U5A.ve     8.737E-12
    X_U5A.vlim   5.531E-08
    X_U5A.vlp   -4.000E-11
    X_U5A.vln   -4.000E-11
    X_U5B.vb     5.654E-05
    X_U5B.vc     1.618E-11
    X_U5B.ve    -3.977E-02
    X_U5B.vlim  -4.065E-02
    X_U5B.vlp   -8.065E-11
    X_U5B.vln    5.618E-05

    TOTAL POWER DISSIPATION   9.30E-01  WATTS


**** 05/18/25 15:14:57 **** PSpice 24.1.0 (23 January 2025) *** ID# 0 ********

 ** Profile: "SCHEMATIC1-monte_carlo"  [ C:\Users\peleg\Desktop\Proiect Cad Final\proiectcad2\proiectcad2-pspicefiles\schematic1\mont


 ****     INITIAL TRANSIENT SOLUTION       TEMPERATURE =   27.000 DEG C

                      MONTE CARLO PASS 48

******************************************************************************



 NODE   VOLTAGE     NODE   VOLTAGE     NODE   VOLTAGE     NODE   VOLTAGE


(   10)   10.0000  (  -10)  -10.0000  (  PWM)   -3.9439  (N00142) 14.13E-06     

(N00159)    -.0012 (N00319)-18.51E-06 (N00323)-15.15E-06 (N00327)-14.13E-06     

(N00472) 571.9E-06 (N00645)    -.1727 (N06722)    8.4999 (N09194)    5.9537     

(N09198)   -2.2148 (N11257) 38.92E-09 (X_U4A.6) 378.1E-06                       

(X_U4A.7)   -3.9877                   (X_U4A.8)   -3.9877                       

(X_U4A.9)    0.0000                   (X_U4B.6) 116.0E-09                       

(X_U4B.7)    -.0012                   (X_U4B.8)    -.0012                       

(X_U4B.9)    0.0000                   (X_U5A.6)-54.32E-09                       

(X_U5A.7) 574.8E-06                   (X_U5A.8) 574.8E-06                       

(X_U5A.9)    0.0000                   (X_U5B.6)   -4.5736                       

(X_U5B.7)   10.5320                   (X_U5B.8)   10.5320                       

(X_U5B.9)    0.0000                   (X_U4A.10)     .3992                      

(X_U4A.11)    9.5747                  (X_U4A.12)    9.5747                      

(X_U4A.53)    7.6842                  (X_U4A.54)   -7.6842                      

(X_U4A.90)    -.8764                  (X_U4A.91)   40.0000                      

(X_U4A.92)  -40.0000                  (X_U4A.99)    0.0000                      

(X_U4B.10)     .3992                  (X_U4B.11)    9.5747                      

(X_U4B.12)    9.5747                  (X_U4B.53)    7.6842                      

(X_U4B.54)   -7.6842                  (X_U4B.90)-58.83E-06                      

(X_U4B.91)   40.0000                  (X_U4B.92)  -40.0000                      

(X_U4B.99)    0.0000                  (X_U5A.10)     .3992                      

(X_U5A.11)    9.5747                  (X_U5A.12)    9.5747                      

(X_U5A.53)    7.6842                  (X_U5A.54)   -7.6842                      

(X_U5A.90) 58.20E-06                  (X_U5A.91)   40.0000                      

(X_U5A.92)  -40.0000                  (X_U5A.99)    0.0000                      

(X_U5B.10)     .3195                  (X_U5B.11)    9.6962                      

(X_U5B.12)    9.4536                  (X_U5B.53)    7.6842                      

(X_U5B.54)   -7.6842                  (X_U5B.90)   40.6400                      

(X_U5B.91)   40.0000                  (X_U5B.92)  -40.0000                      

(X_U5B.99)    0.0000                  




    VOLTAGE SOURCE CURRENTS
    NAME         CURRENT

    V_V4         6.190E-02
    V_V3        -2.214E-02
    X_U4A.vb     3.781E-09
    X_U4A.vc     1.163E-11
    X_U4A.ve     4.793E-12
    X_U4A.vlim  -8.764E-04
    X_U4A.vlp   -4.088E-11
    X_U4A.vln   -3.912E-11
    X_U4B.vb     1.160E-12
    X_U4B.vc     7.686E-12
    X_U4B.ve     8.736E-12
    X_U4B.vlim  -5.883E-08
    X_U4B.vlp   -4.000E-11
    X_U4B.vln   -4.000E-11
    X_U5A.vb    -5.432E-13
    X_U5A.vc     7.684E-12
    X_U5A.ve     8.737E-12
    X_U5A.vlim   5.820E-08
    X_U5A.vlp   -4.000E-11
    X_U5A.vln   -4.000E-11
    X_U5B.vb    -4.574E-05
    X_U5B.vc    -3.976E-02
    X_U5B.ve     1.724E-11
    X_U5B.vlim   4.064E-02
    X_U5B.vlp    4.526E-05
    X_U5B.vln   -8.064E-11

    TOTAL POWER DISSIPATION   9.31E-01  WATTS


**** 05/18/25 15:14:57 **** PSpice 24.1.0 (23 January 2025) *** ID# 0 ********

 ** Profile: "SCHEMATIC1-monte_carlo"  [ C:\Users\peleg\Desktop\Proiect Cad Final\proiectcad2\proiectcad2-pspicefiles\schematic1\mont


 ****     INITIAL TRANSIENT SOLUTION       TEMPERATURE =   27.000 DEG C

                      MONTE CARLO PASS 49

******************************************************************************



 NODE   VOLTAGE     NODE   VOLTAGE     NODE   VOLTAGE     NODE   VOLTAGE


(   10)   10.0000  (  -10)  -10.0000  (  PWM)   -3.8205  (N00142) 14.13E-06     

(N00159)    -.0012 (N00319)-18.71E-06 (N00323)-15.23E-06 (N00327)-14.13E-06     

(N00472) 595.2E-06 (N00645)    -.1820 (N06722)    8.4999 (N09194)    5.9154     

(N09198)   -2.2145 (N11257)-407.5E-09 (X_U4A.6) 366.2E-06                       

(X_U4A.7)   -3.8630                   (X_U4A.8)   -3.8630                       

(X_U4A.9)    0.0000                   (X_U4B.6) 116.0E-09                       

(X_U4B.7)    -.0012                   (X_U4B.8)    -.0012                       

(X_U4B.9)    0.0000                   (X_U5A.6)-56.50E-09                       

(X_U5A.7) 597.9E-06                   (X_U5A.8) 597.9E-06                       

(X_U5A.9)    0.0000                   (X_U5B.6)   -4.8158                       

(X_U5B.7)   10.5320                   (X_U5B.8)   10.5320                       

(X_U5B.9)    0.0000                   (X_U4A.10)     .3992                      

(X_U4A.11)    9.5747                  (X_U4A.12)    9.5747                      

(X_U4A.53)    7.6842                  (X_U4A.54)   -7.6842                      

(X_U4A.90)    -.8490                  (X_U4A.91)   40.0000                      

(X_U4A.92)  -40.0000                  (X_U4A.99)    0.0000                      

(X_U4B.10)     .3992                  (X_U4B.11)    9.5747                      

(X_U4B.12)    9.5747                  (X_U4B.53)    7.6842                      

(X_U4B.54)   -7.6842                  (X_U4B.90)-56.18E-06                      

(X_U4B.91)   40.0000                  (X_U4B.92)  -40.0000                      

(X_U4B.99)    0.0000                  (X_U5A.10)     .3992                      

(X_U5A.11)    9.5747                  (X_U5A.12)    9.5747                      

(X_U5A.53)    7.6842                  (X_U5A.54)   -7.6842                      

(X_U5A.90) 55.55E-06                  (X_U5A.91)   40.0000                      

(X_U5A.92)  -40.0000                  (X_U5A.99)    0.0000                      

(X_U5B.10)     .3156                  (X_U5B.11)    9.7027                      

(X_U5B.12)    9.4472                  (X_U5B.53)    7.6842                      

(X_U5B.54)   -7.6842                  (X_U5B.90)   40.6420                      

(X_U5B.91)   40.0000                  (X_U5B.92)  -40.0000                      

(X_U5B.99)    0.0000                  




    VOLTAGE SOURCE CURRENTS
    NAME         CURRENT

    V_V4         6.190E-02
    V_V3        -2.211E-02
    X_U4A.vb     3.662E-09
    X_U4A.vc     1.151E-11
    X_U4A.ve     4.916E-12
    X_U4A.vlim  -8.490E-04
    X_U4A.vlp   -4.085E-11
    X_U4A.vln   -3.915E-11
    X_U4B.vb     1.160E-12
    X_U4B.vc     7.686E-12
    X_U4B.ve     8.736E-12
    X_U4B.vlim  -5.618E-08
    X_U4B.vlp   -4.000E-11
    X_U4B.vln   -4.000E-11
    X_U5A.vb    -5.650E-13
    X_U5A.vc     7.684E-12
    X_U5A.ve     8.737E-12
    X_U5A.vlim   5.555E-08
    X_U5A.vlp   -4.000E-11
    X_U5A.vln   -4.000E-11
    X_U5B.vb    -4.816E-05
    X_U5B.vc    -3.979E-02
    X_U5B.ve     1.724E-11
    X_U5B.vlim   4.064E-02
    X_U5B.vlp    4.771E-05
    X_U5B.vln   -8.064E-11

    TOTAL POWER DISSIPATION   9.30E-01  WATTS


**** 05/18/25 15:14:57 **** PSpice 24.1.0 (23 January 2025) *** ID# 0 ********

 ** Profile: "SCHEMATIC1-monte_carlo"  [ C:\Users\peleg\Desktop\Proiect Cad Final\proiectcad2\proiectcad2-pspicefiles\schematic1\mont


 ****     INITIAL TRANSIENT SOLUTION       TEMPERATURE =   27.000 DEG C

                      MONTE CARLO PASS 50

******************************************************************************



 NODE   VOLTAGE     NODE   VOLTAGE     NODE   VOLTAGE     NODE   VOLTAGE


(   10)   10.0000  (  -10)  -10.0000  (  PWM)    4.0228  (N00142) 14.13E-06     

(N00159)    -.0012 (N00319)-18.69E-06 (N00323)-15.21E-06 (N00327)-14.13E-06     

(N00472) 543.4E-06 (N00645)     .0210 (N06722)   -8.4999 (N09194)    6.0280     

(N09198)   -1.9813 (N11257)-28.58E-06 (X_U4A.6)-385.6E-06                       

(X_U4A.7)    4.0675                   (X_U4A.8)    4.0675                       

(X_U4A.9)    0.0000                   (X_U4B.6) 116.0E-09                       

(X_U4B.7)    -.0012                   (X_U4B.8)    -.0012                       

(X_U4B.9)    0.0000                   (X_U5A.6)-51.61E-09                       

(X_U5A.7) 546.1E-06                   (X_U5A.8) 546.1E-06                       

(X_U5A.9)    0.0000                   (X_U5B.6)     .5473                       

(X_U5B.7)  -10.5290                   (X_U5B.8)  -10.5290                       

(X_U5B.9)    0.0000                   (X_U4A.10)     .3992                      

(X_U4A.11)    9.5748                  (X_U4A.12)    9.5747                      

(X_U4A.53)    7.6842                  (X_U4A.54)   -7.6842                      

(X_U4A.90)     .8940                  (X_U4A.91)   40.0000                      

(X_U4A.92)  -40.0000                  (X_U4A.99)    0.0000                      

(X_U4B.10)     .3992                  (X_U4B.11)    9.5747                      

(X_U4B.12)    9.5747                  (X_U4B.53)    7.6842                      

(X_U4B.54)   -7.6842                  (X_U4B.90)-55.64E-06                      

(X_U4B.91)   40.0000                  (X_U4B.92)  -40.0000                      

(X_U4B.99)    0.0000                  (X_U5A.10)     .3992                      

(X_U5A.11)    9.5747                  (X_U5A.12)    9.5747                      

(X_U5A.53)    7.6842                  (X_U5A.54)   -7.6842                      

(X_U5A.90) 55.01E-06                  (X_U5A.91)   40.0000                      

(X_U5A.92)  -40.0000                  (X_U5A.99)    0.0000                      

(X_U5B.10)     .4101                  (X_U5B.11)    9.5602                      

(X_U5B.12)    9.5892                  (X_U5B.53)    7.6842                      

(X_U5B.54)   -7.6842                  (X_U5B.90)  -40.5810                      

(X_U5B.91)   40.0000                  (X_U5B.92)  -40.0000                      

(X_U5B.99)    0.0000                  




    VOLTAGE SOURCE CURRENTS
    NAME         CURRENT

    V_V4         2.220E-02
    V_V3        -6.189E-02
    X_U4A.vb    -3.856E-09
    X_U4A.vc     3.662E-12
    X_U4A.ve     1.276E-11
    X_U4A.vlim   8.940E-04
    X_U4A.vlp   -3.911E-11
    X_U4A.vln   -4.089E-11
    X_U4B.vb     1.160E-12
    X_U4B.vc     7.686E-12
    X_U4B.ve     8.736E-12
    X_U4B.vlim  -5.564E-08
    X_U4B.vlp   -4.000E-11
    X_U4B.vln   -4.000E-11
    X_U5A.vb    -5.161E-13
    X_U5A.vc     7.684E-12
    X_U5A.ve     8.737E-12
    X_U5A.vlim   5.501E-08
    X_U5A.vlp   -4.000E-11
    X_U5A.vln   -4.000E-11
    X_U5B.vb     5.473E-06
    X_U5B.vc     1.618E-11
    X_U5B.ve    -3.969E-02
    X_U5B.vlim  -4.058E-02
    X_U5B.vlp   -8.058E-11
    X_U5B.vln    4.574E-06

    TOTAL POWER DISSIPATION   9.33E-01  WATTS


**** 05/18/25 15:14:57 **** PSpice 24.1.0 (23 January 2025) *** ID# 0 ********

 ** Profile: "SCHEMATIC1-monte_carlo"  [ C:\Users\peleg\Desktop\Proiect Cad Final\proiectcad2\proiectcad2-pspicefiles\schematic1\mont


 ****     SORTED DEVIATIONS OF V(PWM)      TEMPERATURE =   27.000 DEG C

                      MONTE CARLO SUMMARY

******************************************************************************





Mean Deviation =    2.3734
Sigma          =    7.3777

 RUN                    MAX DEVIATION FROM NOMINAL

Pass   35               7.9676  (1.08 sigma)  higher  at T =  587.7500E-06
                        (-103.83% of Nominal)

Pass   50               7.9372  (1.08 sigma)  lower  at T =  140.3300E-06
                        (-107.51% of Nominal)

Pass   13               7.9114  (1.07 sigma)  higher  at T =  277.5600E-06
                        (-101.5 % of Nominal)

Pass   11               7.9095  (1.07 sigma)  higher  at T =  588.1900E-06
                        (-101.67% of Nominal)

Pass    9               7.9037  (1.07 sigma)  lower  at T =  330.6800E-06
                        (-106.64% of Nominal)

Pass   37               7.8906  (1.07 sigma)  higher  at T =  463.9800E-06
                        (-101.48% of Nominal)

Pass   45               7.8867  (1.07 sigma)  higher  at T =  278.0800E-06
                        (-100.87% of Nominal)

Pass   26               7.8769  (1.07 sigma)  lower  at T =  332.4900E-06
                        (-105.94% of Nominal)

Pass   41               7.8712  (1.07 sigma)  higher  at T =  230.6800E-06
                        (-105.78% of Nominal)

Pass   44               7.8697  (1.07 sigma)  lower  at T =  319.8900E-06
                        (-105.75% of Nominal)

Pass   48               7.8623  (1.07 sigma)  lower  at T =  570.6700E-06
                        (-105.55% of Nominal)

Pass   31               7.8599  (1.07 sigma)  higher  at T =  587.9200E-06
                        (-100.4 % of Nominal)

Pass   24               7.8579  (1.07 sigma)  higher  at T =  277.6100E-06
                        (-100.13% of Nominal)

Pass   33               7.8534  (1.06 sigma)  higher  at T =  588.1900E-06
                        (-100.24% of Nominal)

Pass    5               7.8518  (1.06 sigma)  lower  at T =  373.6800E-06
                        (-103.89% of Nominal)

Pass    7               7.8486  (1.06 sigma)  higher  at T =  278.0800E-06
                        ( -99.896% of Nominal)

Pass   47               7.8463  (1.06 sigma)  lower  at T =  451.4300E-06
                        (-105.14% of Nominal)

Pass   30               7.8342  (1.06 sigma)  higher  at T =  278.0800E-06
                        ( -99.529% of Nominal)

Pass   22               7.8162  (1.06 sigma)  higher  at T =  588.1900E-06
                        ( -99.288% of Nominal)

Pass   34               7.8004  (1.06 sigma)  lower  at T =  435.6900E-06
                        (-100.54% of Nominal)

Pass   27               7.7967  (1.06 sigma)  higher  at T =  278.0800E-06
                        ( -98.574% of Nominal)

Pass    3               7.7911  (1.06 sigma)  higher  at T =  278.0800E-06
                        ( -98.431% of Nominal)

Pass   17               7.7753  (1.05 sigma)  higher  at T =  297.0100E-06
                        (-103.28% of Nominal)

Pass   19               7.7601  (1.05 sigma)  lower  at T =  498.0100E-06
                        (-102.84% of Nominal)

Pass   49               7.7551  (1.05 sigma)  higher  at T =  463.4300E-06
                        ( -98.023% of Nominal)

Pass   36               7.7474  (1.05 sigma)  higher  at T =  277.5100E-06
                        ( -97.317% of Nominal)

Pass   29               7.7413  (1.05 sigma)  higher  at T =  588.1900E-06
                        ( -97.379% of Nominal)

Pass   28               7.7174  (1.05 sigma)  higher  at T =  587.7800E-06
                        ( -96.769% of Nominal)

Pass    4               7.7007  (1.04 sigma)  higher  at T =  278.0800E-06
                        ( -96.129% of Nominal)

Pass   46               7.6951  (1.04 sigma)  lower  at T =  249.8200E-06
                        ( -99.322% of Nominal)

Pass   39               7.6917  (1.04 sigma)  lower  at T =  382.3500E-06
                        (-101.09% of Nominal)

Pass   40               7.6835  (1.04 sigma)  higher  at T =  278.0800E-06
                        ( -95.692% of Nominal)

Pass   23               7.6711  (1.04 sigma)  higher  at T =  588.1900E-06
                        ( -95.59 % of Nominal)

Pass   38               7.6646  (1.04 sigma)  lower  at T =  319.9200E-06
                        (-100.39% of Nominal)

Pass   14               7.6628  (1.04 sigma)  higher  at T =  278.0800E-06
                        ( -95.164% of Nominal)

Pass   43               7.6624  (1.04 sigma)  higher  at T =  278.0800E-06
                        ( -95.153% of Nominal)

Pass   32               7.6448  (1.04 sigma)  higher  at T =  277.6100E-06
                        ( -94.704% of Nominal)

Pass   25               7.6383  (1.04 sigma)  lower  at T =   89.3310E-06
                        ( -99.698% of Nominal)

Pass   18               7.6185  (1.03 sigma)  higher  at T =  278.0800E-06
                        ( -94.035% of Nominal)

Pass   10               7.6176  (1.03 sigma)  higher  at T =  298.2000E-06
                        ( -99.154% of Nominal)

Pass    2               7.5955  (1.03 sigma)  higher  at T =  278.0800E-06
                        ( -93.448% of Nominal)

Pass    6               7.595   (1.03 sigma)  higher  at T =  277.8900E-06
                        ( -93.436% of Nominal)

Pass   20               7.5942  (1.03 sigma)  lower  at T =  574.8800E-06
                        ( -98.546% of Nominal)

Pass   42               7.5886  (1.03 sigma)  lower  at T =  207.4200E-06
                        ( -98.4  % of Nominal)

Pass    8               7.5826  (1.03 sigma)  higher  at T =   29.4470E-06
                        ( -94.33 % of Nominal)

Pass   16               7.5787  (1.03 sigma)  lower  at T =  145.4500E-06
                        ( -98.14 % of Nominal)

Pass   15               7.5728  (1.03 sigma)  higher  at T =  278.0800E-06
                        ( -92.87 % of Nominal)

Pass   12               7.563   (1.03 sigma)  higher  at T =   91.2420E-06
                        ( -93.378% of Nominal)

Pass   21               7.5462  (1.02 sigma)  lower  at T =  145.0900E-06
                        ( -97.289% of Nominal)



          JOB CONCLUDED

**** 05/18/25 15:14:57 **** PSpice 24.1.0 (23 January 2025) *** ID# 0 ********

 ** Profile: "SCHEMATIC1-monte_carlo"  [ C:\Users\peleg\Desktop\Proiect Cad Final\proiectcad2\proiectcad2-pspicefiles\schematic1\mont


 ****     JOB STATISTICS SUMMARY


******************************************************************************



  Total job time (using Solver 1)   =       12.06
